243
Properties=species:S:1:pos:R:3:momenta:R:3:masses:R:1 C60-Ih=T time_fs=77000.0 step=77000 energy=-2134.439292803872 free_energy=-2134.439292803872 stress="0.0 0.0 0.0 0.0 0.0 0.0 0.0 0.0 0.0" pbc="F F F"
C       -1.22802081       1.84891470       2.58496640       0.20205634      -0.18776215       0.49333930      12.01100000
C       -1.65921396       0.56578497       2.93999373      -0.78557110      -0.06372481       0.44609513      12.01100000
C       -1.88559828       2.50637144       1.48043703       0.49100775       0.96868218       1.38370076      12.01100000
C       -2.66589582      -0.09732678       2.31219824      -0.06171899       0.00174672      -0.66789900      12.01100000
C       -2.53393896      -1.52712194       2.00997234      -0.48497104       0.13572342      -0.09074809      12.01100000
C       -0.51762118      -0.11578180       3.42814564      -0.55858957       0.33063081      -0.13735832      12.01100000
C       -0.28490090      -1.50340266       3.19031657      -0.80706173       0.85172443      -0.37312510      12.01100000
C       -1.37096788      -2.12261585       2.45132008       0.20458042      -0.81851609      -1.03217209      12.01100000
C        0.38302809       3.25715859       0.78614347       0.06738256       0.41668413       0.29701733      12.01100000
C        0.94935934       2.58337460       1.89225618       0.64547620       0.82610739      -2.23254790      12.01100000
C       -1.02041274       3.20355693       0.56971090       0.00113142       0.82576960       0.36679316      12.01100000
C        0.16965679       1.98865359       2.87260745      -0.14941217      -0.53259940      -0.52905009      12.01100000
C        0.66127495       0.73154452       3.35608953       0.25260562      -0.71119413       0.36427323      12.01100000
C        2.27849603       2.07200551       1.46221541      -0.62217865       0.18326075       0.41684156      12.01100000
C        2.67958218       0.96223064       2.02952211       0.30073543      -0.37177437      -0.06878551      12.01100000
C        1.88838087       0.18958091       2.96399207       0.15338345       0.10233862       0.72833208      12.01100000
C       -0.54050294       2.72606234      -1.72751957       0.60065742      -0.60642447      -0.31639294      12.01100000
C        0.86748607       2.89298495      -1.62042481       0.50507018      -0.13779934      -0.80242838      12.01100000
C       -1.51700675       2.98126577      -0.77070667       0.75963768      -0.37508916      -0.60801760      12.01100000
C        1.31533441       3.15072746      -0.34131976      -0.68999458       0.41373706      -0.45453540      12.01100000
C        2.47835479       2.47198350       0.12173892      -0.27769711      -0.90985138       0.25738613      12.01100000
C        1.46776890       1.88211850      -2.38964856       0.66181595       0.65956225       0.47868926      12.01100000
C        2.67310992       1.27979959      -2.09252512       1.08452060       0.36170383      -0.37334738      12.01100000
C        3.07359779       1.53516155      -0.73707359       0.17719916      -1.35065271       0.41243982      12.01100000
C       -2.82212440       1.19364829      -1.65338939       0.44174902      -0.51591550       0.65446119      12.01100000
C       -1.92552570       0.98406110      -2.73066225       0.09240480       0.32930701       0.83622042      12.01100000
C       -2.55770587       2.10211378      -0.65080919      -1.24510622      -0.02465208      -0.47336382      12.01100000
C       -0.84172327       1.74955009      -2.71829586      -1.33827241      -1.16478187       0.26145987      12.01100000
C        0.42646205       1.24884789      -3.11365384       0.51368528      -0.53710636      -0.24876657      12.01100000
C       -1.74807344      -0.43824391      -2.96760030       0.47799982      -0.61695897       0.00219383      12.01100000
C       -0.54341633      -1.01123061      -3.33129991       0.64692006       0.56899728      -0.34705588      12.01100000
C        0.66171031      -0.09487594      -3.46842358       2.42916760       0.55493435      -0.32617688      12.01100000
C       -3.30738683       0.55836214       1.12635896       0.29673605      -0.34296257       0.17393112      12.01100000
C       -3.44521749      -0.45597339       0.10065695       0.69294645       0.66013801      -0.41054520      12.01100000
C       -2.88887706       1.86516550       0.74747006       1.40253971      -0.00468524       0.01445501      12.01100000
C       -3.34340347      -0.13173665      -1.23190712       1.61660503       0.37169997      -0.13144287      12.01100000
C       -2.65314493      -1.11223880      -2.06966452      -0.10951348       1.12575453       0.44829417      12.01100000
C       -2.98540934      -1.68354944       0.62301560      -0.96256540       1.04061770       0.54205942      12.01100000
C       -2.20710602      -2.48680322      -0.13410994       1.25545551      -1.37398348       0.37895102      12.01100000
C       -2.10342672      -2.25341086      -1.52372588       1.51368561       1.11877560       1.31290192      12.01100000
C        1.31151317      -2.19595991      -2.71369617      -0.57351781      -0.74095135      -0.02072917      12.01100000
C       -0.08892628      -2.23232593      -2.83255789       0.69435338       0.53950913       1.10536254      12.01100000
C       -0.92215074      -2.87146139      -1.92939075      -0.34372579       0.04458797       0.04023681      12.01100000
C        1.95380772      -2.69881530      -1.55371116      -0.15385161      -0.07828134       0.09161429      12.01100000
C        3.41885590      -0.66058562      -1.10197015       0.45285451      -0.19024649      -0.59360698      12.01100000
C        2.86592819      -0.10938512      -2.35467302       0.98704644      -0.31879680      -0.60411698      12.01100000
C        1.77493068      -0.80819093      -3.00499035      -0.93604028       0.45163647      -0.73727849      12.01100000
C        2.92829812      -1.93570465      -0.77785951       0.56169738      -0.04407068      -0.87553570      12.01100000
C        2.91387193      -1.25266317       1.51972889      -0.34033416       1.20808402      -1.82317984      12.01100000
C        3.32278935       0.03239469       1.18430662      -0.25623421       0.31790198      -0.22613736      12.01100000
C        3.55994163       0.36305602      -0.14094957       0.39415141       1.62144911      -0.74855218      12.01100000
C        2.64014530      -2.18958651       0.59679604      -0.95881401       1.01782597      -0.39754241      12.01100000
C        0.73022945      -2.98857991       1.76832237       0.84371993       0.57805519       0.24304834      12.01100000
C        0.97107710      -2.05028037       2.78936030      -0.14157358      -0.22479932       0.16800677      12.01100000
C        2.06669354      -1.20529140       2.68750675      -0.15390284       0.76607487       0.63892330      12.01100000
C        1.49739342      -3.07265951       0.68950255       0.72542818       0.75126780       1.42119831      12.01100000
C       -0.25677465      -3.42557476      -0.80740208      -1.07330284      -0.96901430       1.00249593      12.01100000
C       -1.11836276      -3.28469071       0.33519573      -0.09378952      -0.53457796       1.62274343      12.01100000
C       -0.68607232      -3.07087418       1.52470247       0.22858741      -0.66662593      -0.17673136      12.01100000
C        1.04781168      -3.36596853      -0.60065669      -1.30602874      -0.83710726      -0.59631523      12.01100000
C       -4.10604706      -2.03215729       4.48778837      -0.18840388      -0.19835244      -0.26118266      12.01100000
C       -4.46876277      -2.82290692       3.35736025      -0.83670729      -0.38726132      -0.87502855      12.01100000
C       -3.66258753      -4.03301713       3.21893194       0.99776860      -0.77639969      -0.48949205      12.01100000
C       -2.71655021      -3.96202037       4.32593307       0.18780695       0.27414270      -0.42387109      12.01100000
C       -2.99021107      -2.69735076       5.04564956       0.46798109      -0.22892609      -0.85726343      12.01100000
C       -1.89640949       3.55851599       4.92055128       0.00048092      -0.93734412      -0.88175935      12.01100000
C       -2.33814313       2.37785157       5.57025320       1.43970390      -1.15258267      -0.67664570      12.01100000
C       -1.06406895       1.69207558       6.07709815       1.61286786      -0.64492031       0.42510371      12.01100000
C        0.04529416       2.55709421       5.81884887       0.03229520       0.88915942       1.57930224      12.01100000
C       -0.50881884       3.65848326       5.12319522       0.65022968      -0.63429424       0.20675038      12.01100000
C       -6.13452576       1.71472977      -0.16419563      -0.20286432      -0.12947545       0.48207027      12.01100000
C       -6.28553480       1.00959030       1.07028606       0.39998252      -1.20883556       0.18570481      12.01100000
C       -5.81759480       1.87356189       2.12022108      -0.20935191       0.84169659       0.24819555      12.01100000
C       -5.40306079       3.15716424       1.57070002      -1.09356844      -0.76178244       1.31881388      12.01100000
C       -5.65353869       3.06223524       0.12821974       0.58054452       0.00780509      -0.43102486      12.01100000
C       -3.93030024      -4.18532911      -2.92810938      -1.41754520       0.51326064       0.81400471      12.01100000
C       -4.42842085      -4.11692104      -1.61355300      -0.43766865      -0.30610505       0.01639351      12.01100000
C       -5.40685178      -3.03668128      -1.51785963      -0.03856828       0.56496319      -0.17892017      12.01100000
C       -5.35665813      -2.17435254      -2.68834333       1.05511861       0.81115040       0.14746898      12.01100000
C       -4.36526308      -2.88730425      -3.56234443       0.01520892       0.22302109      -0.20123890      12.01100000
C        1.63546820      -6.13039322       0.65023117      -0.16176695       0.78595467       1.42031106      12.01100000
C        0.44131715      -6.22489564       1.30180148       0.33390817      -0.15979382       0.57487287      12.01100000
C       -0.53427326      -6.29165613       0.22835403      -0.39646374      -0.56111673       0.51263653      12.01100000
C        0.06102959      -6.27966210      -1.07247950      -0.89421226       0.08595353      -0.89293532      12.01100000
C        1.51583883      -6.13593178      -0.83909695       0.03018535       0.25268643      -0.15316505      12.01100000
C        3.07084663      -1.32727279       5.49343426       0.43734734       0.33418728       0.22910724      12.01100000
C        1.86947372      -2.21193110       5.68171117       0.49586969      -0.17970987       0.29818451      12.01100000
C        2.14608173      -3.35775437       4.90389147      -0.09486465       0.90530660       0.25500157      12.01100000
C        3.42352281      -3.17333032       4.20482947      -0.52475820      -0.03214065       0.31642497      12.01100000
C        4.01892772      -1.97665625       4.50228588      -1.07511408       0.48598335       0.29221122      12.01100000
C        4.09321949       2.19497370      -4.47146942       0.19099775       0.89286126      -0.65105292      12.01100000
C        2.94058365       2.79177453      -5.02078440       1.15275220      -0.16176108      -0.26448821      12.01100000
C        2.67346600       4.02203761      -4.34945716       1.34176327       0.68360722       0.13986839      12.01100000
C        3.77521158       4.21702519      -3.29186798      -0.46768071       0.94133038      -0.49572386      12.01100000
C        4.57916470       3.05446532      -3.33877241      -0.43960371      -0.76294567      -0.88027985      12.01100000
C        0.42242534      -3.76576045      -5.16229653       0.65876493       0.26950630      -0.18630328      12.01100000
C       -0.03440597      -2.56078276      -5.70162939       1.03548013      -1.09322401      -0.13486739      12.01100000
C        1.04128244      -1.64127824      -5.96208679       0.36289002       0.62899520       0.52235393      12.01100000
C        2.25241182      -2.26513612      -5.40769513       0.19416102       0.15486608       0.08832111      12.01100000
C        1.85427682      -3.54240969      -4.95230011      -0.96506695      -0.60160965       0.42750515      12.01100000
C       -4.01708895       2.04569803      -4.60994041       1.50428850      -0.33470363       1.70949047      12.01100000
C       -3.50396756       3.39346608      -4.28886045       0.78204859      -1.42745887       0.02746414      12.01100000
C       -2.09917439       3.57592675      -4.90107793      -0.15848664       1.21913732       0.41564080      12.01100000
C       -1.85183244       2.34935275      -5.67982752      -0.72221790      -1.04029231      -0.70808053      12.01100000
C       -2.95164524       1.38378839      -5.43742776      -0.80038057      -0.31725103      -0.14444111      12.01100000
C       -1.57112897       6.17377703       0.79754707      -0.37704283      -0.07663575       0.76474555      12.01100000
C       -0.06361145       6.19786473       1.02822319      -0.23418881      -0.38357034       0.15903440      12.01100000
C        0.55826549       6.29876492      -0.27931875       0.29120152       0.26218551       0.00190103      12.01100000
C       -0.49627152       6.31497917      -1.29584216       0.90516777      -0.01510478       0.02078202      12.01100000
C       -1.75917284       6.14594702      -0.69327566       0.08569476      -0.73299923      -0.76758984      12.01100000
C        4.32229195       3.00913909       3.58479908      -0.08442735      -0.92886163      -1.16628199      12.01100000
C        5.29232849       2.38267059       2.65137274       0.21850066       1.05269557      -0.54202451      12.01100000
C        5.28584046       3.09332479       1.37732126      -0.61675172       0.54963085       0.34110635      12.01100000
C        4.45812589       4.21557927       1.51953988       0.08665064      -0.87437831       0.49553191      12.01100000
C        3.81424181       4.12488223       2.80073635      -0.51168300       0.64022064       0.50287685      12.01100000
C        5.61850318      -3.10077055      -0.10565053      -1.23158871      -0.47133887       0.94897016      12.01100000
C        5.28915804      -3.05875915      -1.48804123       0.79385834      -0.01479730       1.02276865      12.01100000
C        5.62382534      -1.83117960      -2.04361850       1.07945141       0.75284888       0.63187880      12.01100000
C        6.24285068      -0.97820722      -1.03260681       1.42803705       0.14499597       0.69041273      12.01100000
C        6.12074587      -1.77148586       0.18114268       0.95403533       0.16947544       0.58327632      12.01100000
C       -5.13645810      -0.07157226       3.43650156      -0.69800294       0.66518691      -0.02136412      12.01100000
C       -4.19844055       2.28860851       3.98311647      -0.40682502       1.01541764       0.29582271      12.01100000
C       -3.38699151       0.16828200       5.29150639       0.33727655       0.88943767       0.51694409      12.01100000
C       -5.10624683       1.39040275       3.29020219       0.08132083      -0.41388199       0.02182856      12.01100000
C       -4.30778529      -0.66489853       4.46223698      -0.17595274      -1.55848062      -0.04346529      12.01100000
C       -3.36819875       1.62226789       5.07814679       0.01882098      -0.14023698      -0.37963898      12.01100000
C       -5.55389898      -0.91633486       2.19211876      -0.75974611      -1.72363820      -0.35033830      12.01100000
C       -6.12335222      -1.13347217      -0.24828875      -0.03547997      -0.21675041      -0.11662069      12.01100000
C       -5.21235130      -3.17224573       1.05336148       0.09563043       0.55834239       0.94699609      12.01100000
C       -6.27391307      -0.41346127       1.02311241       0.37383496       1.02388845      -0.19365155      12.01100000
C       -5.13304011      -2.27722981       2.26600862      -0.75333222      -0.11455396      -0.62379374      12.01100000
C       -5.67429120      -2.47196663      -0.18211234      -0.21752560      -1.04211135       0.02896398      12.01100000
C       -4.25219002      -4.31312902       0.91176420      -0.24057843       0.40237070       0.79042517      12.01100000
C       -2.60664453      -5.47056190      -0.70641619       0.70190619       0.66869960       0.66372103      12.01100000
C       -2.16112869      -5.36760975       1.80035995      -0.10635612       0.31164903      -0.79465659      12.01100000
C       -3.88860803      -4.77499813      -0.51613268      -0.91342820      -0.09597467       0.04368767      12.01100000
C       -3.41647664      -4.73971257       2.01112517       0.22280471       1.39765703      -0.86569607      12.01100000
C       -1.81919985      -5.75450543       0.48608412      -0.70211738      -0.00607517      -0.24524855      12.01100000
C       -1.16682669      -5.37344789       2.87373470      -1.38607239       0.58366900       0.33773065      12.01100000
C        1.39951562      -5.22523634       3.33367318      -1.25513645       0.14919380       0.22096243      12.01100000
C       -0.29276359      -3.95205857       4.86590484       0.05689816       0.14257123       0.25966306      12.01100000
C        0.26558977      -5.75407290       2.64619266      -0.21293130      -0.27283204       0.72639051      12.01100000
C       -1.39411065      -4.52435944       4.17609044      -0.44763754      -1.22268966      -0.64395420      12.01100000
C        1.05786510      -4.21517027       4.51263221       0.64766137      -0.79829521      -0.18300025      12.01100000
C       -2.12360865      -0.48947881       5.82493984      -0.31536860       0.92382585      -0.02826191      12.01100000
C        0.41775567      -0.32290256       5.96475447       0.60734722      -0.91943634      -0.54942946      12.01100000
C       -0.60660415      -2.70422734       5.74369716       0.97535632       1.17588288      -0.58842338      12.01100000
C       -0.96928418       0.23207767       6.11263097      -0.55233912       1.85952158      -0.48903874      12.01100000
C       -1.87542820      -2.00943109       5.67635260      -0.66838386       0.27956336       0.59931966      12.01100000
C        0.52801659      -1.74853100       5.92439925      -0.38100650      -0.18779216       0.52423344      12.01100000
C       -3.77392432       3.52697315       3.32362364       0.30557895       0.97817951       0.36385356      12.01100000
C       -3.63521211       4.96193742       1.21334981       0.41174432       0.01411560      -1.12888247      12.01100000
C       -1.68480025       5.01378087       2.95206935       1.07100377       0.73401757       0.81684138      12.01100000
C       -4.39346198       4.03456118       2.05664445      -0.80973349      -0.14608308      -0.12498230      12.01100000
C       -2.52259869       4.18890100       3.78187571      -0.76319819      -0.33796685       0.25600819      12.01100000
C       -2.34715948       5.39797621       1.65128392      -0.45375353       0.19762761       0.20814339      12.01100000
C        2.20717844       2.86656384       4.94217803      -0.07448585       0.89462681      -0.92897606      12.01100000
C        3.85424859       0.87274252       4.75649826       0.04062966       0.29399308       1.44262146      12.01100000
C        1.54359723       0.65491917       5.83745001      -0.72940810      -0.61559901       0.76415426      12.01100000
C        3.54114622       2.33854217       4.51523290      -1.49982403       0.55721696       0.27406336      12.01100000
C        1.41279444       2.05872834       5.74378363      -0.81624535       0.65371113       0.23107715      12.01100000
C        2.90189387       0.12211941       5.44619830      -1.00920013      -0.23824330       1.40402177      12.01100000
C       -0.19770885       5.15007320       3.21308082       0.49827028      -0.14416096       0.30187504      12.01100000
C        2.02804043       5.48241084       2.04870384      -0.42987765       0.25824777       0.60531590      12.01100000
C        1.75752848       4.18575093       4.23795905      -1.03344163      -0.65000600      -0.20200627      12.01100000
C        0.68340099       5.83672475       2.16105660       0.63847000      -1.82839762      -0.33686516      12.01100000
C        0.32451005       4.34967225       4.30046243      -0.14649717       0.01220669       0.42298749      12.01100000
C        2.52129789       4.78629200       3.17028428      -0.20139904      -0.05821065      -0.40003643      12.01100000
C       -5.90760809      -0.20460836      -1.55067413      -1.16597846      -0.12714284       0.44443271      12.01100000
C       -4.81388188      -0.08965533      -3.79368334       0.64031435      -0.31567750      -0.68566707      12.01100000
C       -5.28652306       2.07957317      -2.40402542      -0.55503695      -0.05773171       0.68236772      12.01100000
C       -5.55425744      -0.76231303      -2.73115749       0.00668208       0.43908370      -0.28480885      12.01100000
C       -5.95503809       1.27313764      -1.41921742       1.37837403      -0.30035995      -0.29109891      12.01100000
C       -4.92223256       1.40272145      -3.65564134      -0.01770557      -0.21415172      -0.19034638      12.01100000
C       -4.65736857       3.43646807      -2.09621772      -0.06531536      -0.85053225       0.49436565      12.01100000
C       -2.81432871       5.01028882      -2.55944461      -0.59930403       0.92707838       0.20313273      12.01100000
C       -3.77097386       4.80005786      -0.23090398       0.18709825      -0.24631484      -0.34754384      12.01100000
C       -3.71454421       3.96821363      -3.01291368      -0.29562476       0.23492012       0.79409713      12.01100000
C       -4.85165722       3.99534834      -0.70888271      -0.99959891      -0.42623918      -0.41368393      12.01100000
C       -2.81036777       5.35566974      -1.17547468      -0.28878691      -0.95160983       1.08198042      12.01100000
C       -2.01831718      -5.46176459      -2.08237123      -0.10291631      -0.65178356      -0.00427866      12.01100000
C        0.25984421      -5.15830759      -3.18181082       0.30627104      -0.35304070       0.13688291      12.01100000
C       -1.82218972      -4.09485905      -4.23415808       0.29500277      -2.28250606      -0.76300827      12.01100000
C       -0.57430685      -5.79235515      -2.21211527      -1.62536257      -0.78180407      -0.60316521      12.01100000
C       -2.55608131      -4.76212069      -3.18710398       0.50033710      -0.10498312       0.68527781      12.01100000
C       -0.44437164      -4.50511281      -4.29994123      -0.86407500       0.43665432       0.46594045      12.01100000
C       -2.27010307      -2.80928360      -4.87839049       0.07196562       1.11489594       0.01246811      12.01100000
C       -1.51187378      -0.64518748      -5.88515089      -1.17420768      -0.48704774       0.68619563      12.01100000
C       -3.83204134      -0.75229816      -4.63771686       0.79820448      -1.19522834       0.99189241      12.01100000
C       -1.36935471      -2.04646511      -5.60409740       1.13116104       0.31592614      -0.05743407      12.01100000
C       -3.51259996      -2.14322130      -4.49804461      -1.19289621      -0.70768599       0.16812989      12.01100000
C       -2.81755157      -0.04897246      -5.37863638      -0.12035980      -0.71669552      -1.64637800      12.01100000
C        2.71578047      -4.95157416       2.60387932      -0.49175148       0.31912762       1.41538732      12.01100000
C        4.68490501      -3.24136130       2.14672120       0.16791685       0.89639759       0.45918016      12.01100000
C        3.71703289      -4.72444668       0.32920264       0.77424015      -0.66445023       0.93676763      12.01100000
C        3.71127348      -3.93511026       3.04115192      -0.26501304      -1.29979593      -1.15797880      12.01100000
C        2.79314844      -5.38627073       1.24504904       0.27901618      -1.29958801      -1.51321552      12.01100000
C        4.70428046      -3.82522845       0.79628964       1.11689477       0.05349076      -0.59131209      12.01100000
C        1.76844816      -5.05722892      -2.95128747      -2.28676950      -1.03355991      -1.28386190      12.01100000
C        3.70946934      -3.38342880      -3.34629679       1.39674765       0.09146012      -0.31686363      12.01100000
C        3.49083905      -4.81465432      -1.21284531       0.44904599       1.20851911      -0.81066306      12.01100000
C        2.45112880      -4.05832646      -3.79284376      -1.10768340      -1.05263476      -2.57060728      12.01100000
C        2.38124075      -5.53456322      -1.73737667      -0.12890937       0.67358168      -0.39814924      12.01100000
C        4.18827657      -3.85205432      -2.06779716      -0.45615575      -0.30309814      -1.17675806      12.01100000
C        4.74553116       0.17905681       3.78030240       0.50776907      -1.76276020      -0.96484718      12.01100000
C        5.92890695       0.29481155       1.46441420      -1.25675533       0.39765860       0.08509015      12.01100000
C        5.33860693      -1.92948722       2.47228980      -0.55788913      -0.58731893      -0.45564514      12.01100000
C        5.34245255       1.00078696       2.64011754      -0.35064654       0.23965891      -0.33183132      12.01100000
C        4.87023925      -1.25772958       3.68159004      -0.76899138      -0.95166911       0.24759552      12.01100000
C        5.96248688      -1.18727100       1.45543915       0.39653257      -0.14882256      -0.72923131      12.01100000
C        3.30478293      -0.00758059      -5.29229096      -1.16517657       0.40261196      -0.28559967      12.01100000
C        4.07831362      -2.11610407      -3.97844517      -0.35300943      -1.45475983       0.48478437      12.01100000
C        5.00455000       0.21374137      -3.37135887       0.54388266       1.09280352       0.43311469      12.01100000
C        3.37782707      -1.51799530      -5.02461354       0.82415869       1.83875832       0.11966702      12.01100000
C        4.21718580       0.79178137      -4.53676114      -0.40024658       0.35086665      -0.17962348      12.01100000
C        4.98839048      -1.19943899      -3.17011030      -0.40102625      -0.70904412      -0.76522259      12.01100000
C        2.04896033       0.57940000      -5.77647587      -0.02331725      -0.00665427       0.44451923      12.01100000
C       -0.46771985       0.33547883      -6.12448596       0.23310212      -0.03134694      -0.89753716      12.01100000
C        0.50612244       2.63458349      -5.42593187      -0.77452603      -0.05395924      -0.02298632      12.01100000
C        0.86438838      -0.24578370      -6.08045742       0.04034140       0.34548913      -0.86902451      12.01100000
C        1.87186135       2.02254622      -5.48235386      -0.70784798      -0.20722943       0.01165595      12.01100000
C       -0.56247648       1.79863988      -5.89651417      -0.55056886       0.58669618       0.27043418      12.01100000
C        0.22064611       3.81881360      -4.66810809      -0.33951219       0.17326335      -0.55340179      12.01100000
C       -1.47098932       5.23686540      -3.21149887       1.42021834       0.23001902      -0.42732149      12.01100000
C        1.18779679       5.48945665      -2.95581814      -0.55935613       1.33367500      -0.46874123      12.01100000
C       -1.09787627       4.39119274      -4.33929751       1.42127687       0.00093876       0.32821968      12.01100000
C        1.34155299       4.60786602      -4.07938839       0.62922539       0.04776925       0.48156694      12.01100000
C       -0.23831819       5.76776649      -2.60094137       0.54364918       0.16586822      -0.37792068      12.01100000
C        2.12745439       5.44422261      -1.91664765      -0.67111760      -0.70811380       1.04931861      12.01100000
C        2.65336808       5.59467638       0.68547788       0.92080580      -0.46402625      -0.96586256      12.01100000
C        4.19122584       4.30399705      -0.87628571       0.23879190      -0.22227632       0.07195829      12.01100000
C        1.81375407       5.73830360      -0.48788109       0.16152892       0.38722656      -0.76627097      12.01100000
C        3.47539922       4.85925612      -2.12502018       1.16559189       0.97079411       0.29085659      12.01100000
C        3.80887736       4.75246368       0.38564914      -0.15342690       1.61229077       0.71815006      12.01100000
C        5.15220139       3.15725422      -1.05917682       0.69206264      -0.31297678      -0.68541751      12.01100000
C        6.03001689       1.06372882       0.19131039       0.30997792       1.04175692      -1.64737844      12.01100000
C        5.52031637       1.05249838      -2.31818496      -0.35168053      -0.78072021       0.86440279      12.01100000
C        5.58466182       2.42447216       0.14740218      -0.72718583       0.01695887       0.04570490      12.01100000
C        5.27648129       2.46064076      -2.30784549       0.30489660       1.01185872       0.62191032      12.01100000
C        6.08267183       0.37579976      -1.13092121      -0.17510331       1.09483092       0.17842425      12.01100000
O       -0.19812960      -0.02857804      -0.22825212      -0.03854084      -0.64363653      -0.79101314      15.99900000
H        0.73149472      -0.41394153      -0.25942861      -0.00640908      -0.19071337       0.23085673       1.00800000
H       -0.31901960      -0.10270789       0.75492599      -0.17986189       0.00231963       0.09284206       1.00800000
