243
Properties=species:S:1:pos:R:3:momenta:R:3:masses:R:1 C60-Ih=T time_fs=75000.0 step=75000 energy=-2134.871143031978 free_energy=-2134.871143031978 stress="0.0 0.0 0.0 0.0 0.0 0.0 0.0 0.0 0.0" pbc="F F F"
C       -1.04622504       2.12257688       2.46100206      -0.16050772       0.07683667       0.21256966      12.01100000
C       -1.42589123       0.80513949       3.01475033      -0.83885828      -0.33634941      -1.10908815      12.01100000
C       -1.80786246       2.67029899       1.47264642       0.69783156       0.63121763       0.32251991      12.01100000
C       -2.37074326       0.01460951       2.42424745      -0.48580658       1.27582581       1.02424829      12.01100000
C       -2.22679360      -1.43614633       2.24255476       0.75514612       0.64776114       0.30518198      12.01100000
C       -0.22425082       0.15445688       3.38086250       0.06754700       0.74795362      -0.61854657      12.01100000
C       -0.00686324      -1.18700835       3.23645389       0.13613159      -0.05683930       0.21977695      12.01100000
C       -1.05954820      -1.98803069       2.62491447       0.14054952      -0.12234740      -0.84326899      12.01100000
C        0.13407824       3.60901234       0.50403369       0.73322584       0.00241422       0.16545823      12.01100000
C        0.96911414       2.99451152       1.61976699      -0.02074639      -0.49206826       0.24426202      12.01100000
C       -1.20766530       3.45971630       0.36419562       0.38225666      -0.69339237      -0.15120505      12.01100000
C        0.27033622       2.33369384       2.58447603       0.83745016       1.46208767      -0.53930084      12.01100000
C        0.83325600       1.06497965       3.17724017      -0.41850942      -0.26890281       1.15280732      12.01100000
C        2.22171241       2.51927254       1.20477015       0.80739964      -0.16515451      -0.41744127      12.01100000
C        2.75290928       1.38299984       1.78545340      -0.23028463      -0.28448073      -0.78559868      12.01100000
C        2.03626912       0.64940905       2.74307682      -1.42339415       0.98701936      -1.35651003      12.01100000
C       -0.95864799       2.79939344      -2.03836438       0.22762618      -0.09687292      -1.00324525      12.01100000
C        0.36771173       3.00771392      -1.88459654       0.67782611      -0.73950353       0.04316896      12.01100000
C       -1.78860644       2.96838351      -0.83486756      -0.84047670       0.16385242       0.05240302      12.01100000
C        0.99554207       3.30603357      -0.67145136       0.40773609      -0.20792476      -0.52096362      12.01100000
C        2.20481660       2.62735830      -0.22109595      -0.19535356       0.01422029       0.75743516      12.01100000
C        1.09091975       1.96608755      -2.74680641       0.64436720      -0.12807096       0.65006635      12.01100000
C        2.27236226       1.36660468      -2.31125834      -1.99990849      -0.05475813       0.70439092      12.01100000
C        2.83787388       1.73252775      -1.04391454      -0.77560210       0.22166915      -0.73452823      12.01100000
C       -3.00534015       0.98403061      -1.51089828       0.26381884       0.03625352      -0.32974055      12.01100000
C       -2.20825288       0.82336741      -2.70024391       0.55843976       0.53694189      -0.21818478      12.01100000
C       -2.74603761       1.97924369      -0.55401617      -1.11795437      -0.25543542      -0.46656993      12.01100000
C       -1.16889445       1.64055640      -2.89072309      -0.21387085      -0.36368896      -1.12490363      12.01100000
C        0.12687161       1.16381518      -3.32268252      -0.03815076      -0.78444554      -0.58886273      12.01100000
C       -2.03719670      -0.56935602      -2.85699282       0.74372189       0.28649292      -0.24428109      12.01100000
C       -0.78643547      -1.04640651      -3.26769605       0.79424397       0.03396544      -0.84778777      12.01100000
C        0.28336641      -0.23521203      -3.57145537       0.12393553      -0.39126294      -0.61902154      12.01100000
C       -3.21511037       0.57598654       1.33339787      -0.87055287       1.33394527       0.44496179      12.01100000
C       -3.40360035      -0.49188292       0.40273718      -0.48486816      -0.07358150       0.87112237      12.01100000
C       -2.84410392       1.81290865       0.90900910       0.05589085      -0.63727036      -1.03613929      12.01100000
C       -3.27791453      -0.35373532      -0.93371846       0.23313309       0.03338706       0.50480189      12.01100000
C       -2.73989508      -1.30136125      -1.77310009       0.50089858       0.36296194       0.38016211      12.01100000
C       -2.87622261      -1.69898998       0.99381242       1.59888302      -0.27850421      -1.00256902      12.01100000
C       -2.25434618      -2.66230348       0.25150670      -1.12538164       1.30512104      -0.09387683      12.01100000
C       -2.18816437      -2.47678619      -1.14100365       0.78385356       0.26566290       0.48285831      12.01100000
C        1.19172574      -2.07383406      -2.57749362       1.21960261       0.86886388       0.51204663      12.01100000
C       -0.22496329      -2.21461677      -2.60450081      -0.51085457      -0.31869911      -0.77957115      12.01100000
C       -0.89278427      -2.94070693      -1.64626542      -0.16707176      -0.12386431      -0.38455956      12.01100000
C        1.92144449      -2.51090106      -1.46776655       0.47714206      -0.52328183      -0.31966408      12.01100000
C        3.19061758      -0.53144117      -1.36467318      -0.61638169      -0.71746239       0.59811568      12.01100000
C        2.39810781      -0.04065998      -2.47188366      -0.05977030       0.85743517       0.28343821      12.01100000
C        1.48512949      -0.80640193      -3.15643802      -0.16313521      -1.36556057      -0.31465662      12.01100000
C        2.89776887      -1.76138604      -0.87624791      -0.21423945       1.35610399       0.02053718      12.01100000
C        3.10310985      -0.89814114       1.35069990      -0.43746254       1.23517548      -0.67649291      12.01100000
C        3.44864676       0.36436827       0.94719125       0.28453465       0.59853496      -1.00005446      12.01100000
C        3.42655185       0.56803621      -0.47894318       0.10389110      -0.69369737       0.11747299      12.01100000
C        2.85431142      -1.91065265       0.52257576       0.84899491      -0.14178657      -0.29880107      12.01100000
C        1.02808747      -2.76831401       1.94409459       0.98000077      -0.10325491       1.93602855      12.01100000
C        1.25794539      -1.64498834       2.83763464       0.09657692      -1.04840278       0.28778205      12.01100000
C        2.28594711      -0.74465674       2.60972254       0.38812022      -1.34110577      -0.25391267      12.01100000
C        1.73820945      -2.72036434       0.84449125       0.10928821      -0.45736861       0.59033004      12.01100000
C       -0.13829849      -3.41460444      -0.48551821       0.11112399       0.28835916      -0.59589570      12.01100000
C       -1.05481291      -3.30496391       0.63978648      -0.24760459      -0.71478616       1.15175770      12.01100000
C       -0.42377027      -2.95544248       1.83204246       0.53916997      -0.34625763       1.37443812      12.01100000
C        1.21529512      -3.25084835      -0.35467219       0.89112639       1.00189258      -0.89034932      12.01100000
C       -3.68380969      -2.21771204       4.45623270      -0.80686717      -0.05720163       0.76670584      12.01100000
C       -4.32702536      -3.13642762       3.47161587       0.28206063      -0.63074844       0.13761310      12.01100000
C       -3.45828228      -4.28983037       3.40241036      -0.01184728       0.88803143      -0.47075938      12.01100000
C       -2.30631814      -4.04560840       4.28294594       0.87208209       0.40598839       0.82076817      12.01100000
C       -2.52416172      -2.78974863       4.93587134       0.48696433      -1.10218610       0.64366656      12.01100000
C       -1.70082231       3.43528055       4.96732532      -0.35433218      -0.21499209      -0.73726135      12.01100000
C       -1.92970608       2.21186656       5.51221989       0.38562992      -0.06857159       0.24485955      12.01100000
C       -0.68714711       1.64107762       6.09069190       0.33609058      -0.05193169      -0.50183477      12.01100000
C        0.33894992       2.54546027       5.85828429      -0.60924442       0.08831624       0.96298150      12.01100000
C       -0.23975937       3.64860751       5.16708024      -0.18842858       0.49462126      -0.25142781      12.01100000
C       -6.08711295       1.61578340       0.14293549      -0.08764328      -0.92555106      -0.07949997      12.01100000
C       -6.16790220       0.88835347       1.34577680       0.12664601       0.56004755      -0.18631929      12.01100000
C       -5.66091572       1.67304840       2.45086078       0.31752793      -0.54087834       0.36978256      12.01100000
C       -5.41826582       3.01967756       1.90081606       0.43757783       0.53566189      -0.32688506      12.01100000
C       -5.62343318       2.95313938       0.49277973       0.02726533       0.96942619       0.34079797      12.01100000
C       -3.83135910      -4.20272176      -2.72640065      -1.32218821       0.10158440      -0.50367756      12.01100000
C       -4.52609395      -4.31185683      -1.42341659       0.27638824       0.54921146      -0.79580677      12.01100000
C       -5.37148194      -3.17366146      -1.32361960       1.21414841      -2.00498668       0.05167759      12.01100000
C       -5.42048730      -2.46308413      -2.56067354       0.27712335      -0.03259152      -0.61055802      12.01100000
C       -4.52396823      -3.13707568      -3.54461737       0.74392916      -1.01098855      -0.64041982      12.01100000
C        1.96164695      -6.09664943       0.42006220       0.16088234      -0.23149340       1.14962847      12.01100000
C        0.67617891      -6.26604083       1.18432592       0.08636944      -0.28477406       0.52230855      12.01100000
C       -0.34002047      -6.45382094       0.22774763      -1.03666011      -0.74991092       1.09386225      12.01100000
C        0.18531544      -6.39739997      -1.11116329      -0.63160882       1.28988030      -0.43963833      12.01100000
C        1.58331513      -6.17013036      -0.94989640      -0.58627929       0.88953692       1.08422320      12.01100000
C        3.31816759      -1.32877325       5.30873009      -0.24995457      -0.14248569       1.40342256      12.01100000
C        2.30105240      -2.18816960       5.71583509       0.79573587      -0.73720101      -2.14871243      12.01100000
C        2.47189641      -3.35341350       4.80951885      -0.25444169       0.12833026      -0.24483265      12.01100000
C        3.60485130      -3.10382088       3.95717903      -0.79500346       0.26370327      -0.32768379      12.01100000
C        4.26810656      -1.93390003       4.42558256      -1.10151037       1.40657488       0.90360696      12.01100000
C        3.84155332       2.28666486      -4.70137928       0.95392770      -1.27193547       0.49654528      12.01100000
C        2.52988080       2.77112978      -5.07933242       0.86734264       1.39233623      -1.47448782      12.01100000
C        2.27185467       4.01686093      -4.32024334      -1.82510340       1.10569910       1.46260503      12.01100000
C        3.43098300       4.15386343      -3.45334772      -1.11648481      -0.12948153       1.51830173      12.01100000
C        4.44160243       3.05629981      -3.64808096       0.74454927      -0.41461707      -0.20786379      12.01100000
C        0.25980414      -3.67175317      -5.14570829       0.12062331      -1.23208631      -0.90065670      12.01100000
C       -0.32234604      -2.49132600      -5.90284211      -0.10117917       1.54600912      -0.16956083      12.01100000
C        0.75612345      -1.53519080      -6.11654519      -0.02743951       0.39367080      -1.30058040      12.01100000
C        1.94061707      -2.16598453      -5.55744946      -0.31468102      -0.11595581       0.32699826      12.01100000
C        1.64494030      -3.42890557      -4.99799087      -0.45097623       1.12989457       0.09744382      12.01100000
C       -4.23469887       1.85600188      -4.25983514       0.29188218       1.50162153      -0.52073957      12.01100000
C       -3.80023962       3.21147664      -3.99517276      -0.57262551      -0.54758057       0.12649822      12.01100000
C       -2.60749538       3.47850377      -4.76510298      -0.66628830      -0.04237913       0.87869922      12.01100000
C       -2.34879093       2.23874893      -5.51699760       1.01219661       0.01584595       1.00736982      12.01100000
C       -3.36492316       1.28515169      -5.19223874      -2.27290790       0.74761525      -1.60348834      12.01100000
C       -1.70384948       6.19320748       1.01320622       0.43298636       0.77009035      -1.24192602      12.01100000
C       -0.25519911       6.35252454       1.17062007       0.86683808      -0.57838993       0.15847329      12.01100000
C        0.39022789       6.36780837      -0.18223324      -0.29814698       0.71936714       0.43021820      12.01100000
C       -0.73718213       6.22755245      -1.15117414       0.41032365      -0.11464635      -0.01497361      12.01100000
C       -1.89998263       6.06841621      -0.36082794       0.06637787       0.30507111      -0.20951342      12.01100000
C        4.56903942       3.01623608       3.42619589       0.11365771       0.05102768       0.29917626      12.01100000
C        5.43017068       2.47825510       2.49256632      -0.22170873      -0.91795260       0.84020006      12.01100000
C        5.32278730       3.10803323       1.17176226      -0.88046896       0.53634099      -0.91513717      12.01100000
C        4.35699808       4.16362958       1.37514196       0.01035596      -0.32641475      -0.80790570      12.01100000
C        3.91276210       4.13879566       2.76514630      -0.11594969       0.40230945       0.17120791      12.01100000
C        5.67150876      -2.98564461      -0.39171464      -0.11439976       0.11187643      -1.20326587      12.01100000
C        5.34153598      -3.03296584      -1.80339904      -0.26643062      -0.41966273      -0.55353265      12.01100000
C        5.62991094      -1.70875804      -2.29018932       0.25156422      -1.48551603       0.21074272      12.01100000
C        6.23504527      -0.87285562      -1.29328330       0.48536083      -0.49415213      -0.02867353      12.01100000
C        6.36594750      -1.66529819      -0.03815924       0.83939293       1.00405613      -0.35727874      12.01100000
C       -4.87150097      -0.28696583       3.61598144       0.32813044      -0.73744922      -0.66146079      12.01100000
C       -3.99005231       2.10085911       4.15377542       0.29357041       0.25469800       0.39427263      12.01100000
C       -2.98599783       0.03301783       5.27383539       1.05346715       0.52267384      -1.62399384      12.01100000
C       -4.97547463       1.17958026       3.49248485      -0.19558273       0.00974058       1.20844083      12.01100000
C       -3.94273761      -0.85941198       4.56683466      -1.00696920      -0.34415615      -1.09765933      12.01100000
C       -3.12546401       1.48204186       5.17462483       1.74468988      -0.59035305      -0.20108438      12.01100000
C       -5.60179629      -1.10859787       2.63257291      -0.41339937      -2.19697946       0.49077329      12.01100000
C       -6.10314520      -1.17002378       0.04470508       0.74306926       0.76230376       0.57415328      12.01100000
C       -5.19126566      -3.25636676       1.19150598       1.16837245       1.00116089      -0.77491423      12.01100000
C       -6.08527085      -0.49116136       1.43157343       1.13816384       0.04234008      -0.22471398      12.01100000
C       -5.08164257      -2.47801148       2.46782837       1.11990853      -0.36707858       0.16486478      12.01100000
C       -5.58337067      -2.53872623      -0.06139344      -1.16664281       1.33786177       1.79242787      12.01100000
C       -4.10896312      -4.44694512       1.02253851      -0.47463714       0.34295752      -0.66506300      12.01100000
C       -2.51802005      -5.55167374      -0.65895438       0.42221264       1.17743151      -0.12915880      12.01100000
C       -1.99519537      -5.51420204       1.78250657       0.00952056       0.64505376       0.24710292      12.01100000
C       -3.88461787      -4.96451142      -0.29595304       0.55707165       0.04433249      -0.01724486      12.01100000
C       -3.21914465      -4.86882334       2.09458342      -0.21819754       0.93047949       0.65054255      12.01100000
C       -1.65205406      -5.93715796       0.48206756       0.53693475      -0.90594759      -0.07134742      12.01100000
C       -0.77914181      -5.45535209       2.82975915       0.69684399       0.99596454       0.46544504      12.01100000
C        1.72461055      -5.11774882       3.23842089       0.48128050       0.62185898      -0.81836288      12.01100000
C        0.07260389      -3.84766986       4.73616172      -0.04354834      -1.59544634      -1.23741205      12.01100000
C        0.54988499      -5.81393725       2.52842006      -0.68454306      -0.19649947       0.67152870      12.01100000
C       -0.95243651      -4.53325852       4.10737488      -0.16042853      -0.56931813       0.73903442      12.01100000
C        1.48621086      -4.27695075       4.38814434      -0.71398489       0.24800324       0.55662654      12.01100000
C       -1.65308480      -0.54075471       5.73760224      -0.36715098       0.33418484       1.29761729      12.01100000
C        0.87061481      -0.22120682       6.20786728      -0.22961264      -0.47597512       0.93319074      12.01100000
C       -0.11658552      -2.59482616       5.49321406      -0.63363706       0.42188663       0.11532112      12.01100000
C       -0.42634079       0.22998780       6.00673608      -0.38266390      -0.71619382       1.70461657      12.01100000
C       -1.41704948      -1.96331224       5.49794219      -0.63560699      -0.62142043      -1.03371442      12.01100000
C        0.96736690      -1.74056243       5.94003568      -1.86268318      -0.56932310       0.75356384      12.01100000
C       -3.67803614       3.41204455       3.55154252       0.41436450      -0.60117782      -0.29953062      12.01100000
C       -3.72017960       4.76718259       1.44201689      -0.20531331       1.00058512      -1.37644791      12.01100000
C       -1.75806499       5.00862737       3.12944656      -0.79797276      -0.56297020      -0.27869390      12.01100000
C       -4.32184402       3.79236818       2.34151094      -0.22659844      -1.18654808      -0.33752038      12.01100000
C       -2.49862902       4.10538724       3.93287168       0.77994274      -0.32193530      -0.08898602      12.01100000
C       -2.57740137       5.48930174       1.96340424      -1.23037300      -0.99585127       0.89445754      12.01100000
C        2.58681281       2.94689913       4.86758703       0.19237580      -0.39893497      -1.14261483      12.01100000
C        4.20237327       0.88315476       4.60721134      -0.01530328      -0.45554655      -0.78572096      12.01100000
C        2.04276360       0.66479046       5.91084032       0.36152612       0.08064366       0.93118251      12.01100000
C        3.81063554       2.27672294       4.46199208       0.40843362       0.40800219       0.10683313      12.01100000
C        1.65985407       2.02992945       5.58636326      -0.37231078       0.00354793       0.67770493      12.01100000
C        3.27963307       0.03709362       5.42430111      -0.21887448      -0.31996713       0.15209854      12.01100000
C       -0.29766036       5.09582839       3.25061165       0.27375180       0.93002347       0.25106221      12.01100000
C        2.01525565       5.57686413       2.12865626      -0.56597931       0.20063867       1.35132585      12.01100000
C        1.90416125       4.03489071       4.12870113      -0.77313979      -1.06346988       1.46898991      12.01100000
C        0.50034648       5.76466589       2.23441650      -0.49808668      -0.67894572       1.11706844      12.01100000
C        0.49135486       4.43537181       4.26830431      -0.07911362      -0.43296249      -1.81055678      12.01100000
C        2.65605094       4.66131652       3.05556721       0.06336670      -0.26500471      -0.84087159      12.01100000
C       -6.01321076      -0.35128790      -1.21966223       0.43798084      -0.05608718       0.44140895      12.01100000
C       -5.13133773      -0.30187363      -3.60219430       0.13746550       0.03617392       0.67107020      12.01100000
C       -5.49609865       1.90976990      -2.13078176       1.45570541       1.30556574      -0.17371287      12.01100000
C       -5.73520871      -0.99480320      -2.50983049       0.69212427      -0.30714666       0.21666834      12.01100000
C       -6.05780677       1.06217205      -1.11631041      -0.19077009       0.09856459      -0.45751629      12.01100000
C       -5.07894311       1.15625586      -3.40432208       0.53686150      -0.17064996       0.18159932      12.01100000
C       -4.82484672       3.19540374      -1.85070955      -1.76604614      -0.55054178      -0.62873432      12.01100000
C       -3.09084678       4.99794900      -2.34700633       0.11160252       0.64573254      -1.20189483      12.01100000
C       -3.89161511       4.63635699       0.01977398      -0.18907172       0.32651948      -0.30161539      12.01100000
C       -3.96738581       3.91640643      -2.74588125      -0.47035921       0.00553769      -0.46702798      12.01100000
C       -4.86836739       3.73279878      -0.45255357      -0.54793801       0.36293531       0.36978237      12.01100000
C       -3.02006032       5.34396536      -0.92859659       0.54829199       0.56349409       0.23999462      12.01100000
C       -2.03535086      -5.54211945      -2.02360005      -1.08813337       0.09598760       0.36430688      12.01100000
C        0.15835685      -5.28410962      -3.24920299       0.72736947      -0.26656839      -1.23052799      12.01100000
C       -1.98449453      -3.98280670      -4.13581332      -1.15139141       0.39322751       0.65142245      12.01100000
C       -0.56937307      -5.97863293      -2.27257440       0.06129451       1.04771827      -0.25270295      12.01100000
C       -2.57573096      -4.69650339      -2.99513690       0.03835205       0.84036674      -0.21730693      12.01100000
C       -0.54347484      -4.41836486      -4.25991006       0.73074247      -0.31148265       0.31024977      12.01100000
C       -2.58018868      -2.89337192      -4.86901634      -0.35322657       0.45762472      -0.29339667      12.01100000
C       -1.93997408      -0.59928956      -5.82435749       1.11004346      -0.55668657       0.58539102      12.01100000
C       -4.15061881      -0.93458721      -4.60207038      -0.29946759      -0.42264760      -1.37085851      12.01100000
C       -1.56159350      -1.97511751      -5.54571179      -0.09856055      -0.36135034       0.34085097      12.01100000
C       -3.87501132      -2.36985544      -4.48480055      -0.86644364      -0.51499079       0.34134254      12.01100000
C       -3.31532523      -0.15216950      -5.40380677       1.01640778      -0.18731928       0.50303452      12.01100000
C        2.94334491      -4.82894102       2.42789405      -1.13624923      -0.39559063      -1.18876528      12.01100000
C        4.84855045      -3.23653763       1.83006381      -0.23415479      -0.41789759      -1.14118822      12.01100000
C        3.99241070      -4.77952465       0.01385495      -0.44905798       0.52763744      -0.09508156      12.01100000
C        3.85193609      -3.88806622       2.78466594       0.90984413       0.58720959       0.15241224      12.01100000
C        3.13235443      -5.45671245       1.00754132       1.09590493      -1.58649420       0.64042051      12.01100000
C        4.86895816      -3.72722773       0.49317136      -0.18719036       0.26167535      -1.51309021      12.01100000
C        1.76625622      -5.09598349      -3.24657882       0.40282954       0.71516169       0.25401809      12.01100000
C        3.66016598      -3.48534439      -3.48415854       1.06366269      -0.59572690      -0.50629836      12.01100000
C        3.68312605      -4.87577223      -1.43425722      -1.72209395       0.55106616       2.24978161      12.01100000
C        2.41711417      -4.06376537      -3.93470303       0.43118793      -0.72749666       0.53758482      12.01100000
C        2.42114390      -5.54388575      -2.00359738       0.42542974      -0.51775493      -0.12052455      12.01100000
C        4.31766778      -3.87942573      -2.28963696       1.07876787       0.15504857      -0.41366758      12.01100000
C        5.05775228       0.24189351       3.59751671       0.55342183      -0.51970353       0.43158831      12.01100000
C        5.99700057       0.45381280       1.14014585       0.57519111      -0.87364450       1.42219630      12.01100000
C        5.42843271      -1.89267746       2.23440843      -0.10888720      -0.82408744       0.03788697      12.01100000
C        5.63753341       1.07918274       2.39961102       0.70715359       0.26422228      -1.25313366      12.01100000
C        5.03539333      -1.17673934       3.50185066      -0.16430804      -0.14657656       0.38778071      12.01100000
C        6.00812765      -0.97736083       1.09350559       0.00019419      -0.48536481       0.46190362      12.01100000
C        2.97596346       0.03002443      -5.26594499       0.57826831      -0.32861691       0.18179131      12.01100000
C        3.93832329      -2.11208403      -4.06288691      -0.36125705      -0.02880640       0.95816156      12.01100000
C        4.97368947       0.23568360      -3.64346524      -0.88884670      -1.68454421       0.00084195      12.01100000
C        3.04512527      -1.42675040      -5.01346129       0.26536313      -0.47329519       0.53492411      12.01100000
C        4.02594324       0.84673907      -4.63321669       0.16900078      -1.12454748      -0.12863632      12.01100000
C        4.85476407      -1.22217548      -3.38452738       0.40573035      -0.24792485       0.86891116      12.01100000
C        1.70126010       0.61339143      -5.76348823      -1.59730666       0.16171576       0.93940525      12.01100000
C       -0.84049574       0.37117399      -6.11020874      -0.26180020      -0.24291109       0.26644153      12.01100000
C        0.11603261       2.62551712      -5.46845132       0.73233590       0.21505636       0.15270353      12.01100000
C        0.51533389      -0.15341571      -6.13926610      -0.58218178       0.05892312       0.18779785      12.01100000
C        1.48616669       2.02556586      -5.60396870      -0.31980536      -0.07321458      -0.05261667      12.01100000
C       -1.00055234       1.78746630      -5.88031900       0.31393117       1.01473346       1.15374315      12.01100000
C       -0.18350010       3.84740843      -4.69694183      -0.18176771       0.18811966      -0.19284356      12.01100000
C       -1.78036170       5.10393073      -3.05967343      -0.40042146      -0.85191809       0.01195259      12.01100000
C        0.84030006       5.31269140      -2.79917742      -0.29044016       0.66684422       0.22366083      12.01100000
C       -1.49716666       4.29736410      -4.30323410       0.71269362       0.41860545       0.06303507      12.01100000
C        0.99486009       4.53336707      -4.04745361      -0.41226680      -0.48728773      -0.76644248      12.01100000
C       -0.55155624       5.64314352      -2.40720321       0.13127008      -0.77766401       1.66237103      12.01100000
C        1.91639280       5.46128039      -1.85352227       0.03650243       0.39064063      -0.59357651      12.01100000
C        2.50143625       5.47412620       0.67969663       0.57453296      -0.14846164       0.77750188      12.01100000
C        4.08901937       4.40636701      -1.12474686       0.61261749       1.11416096      -1.38977351      12.01100000
C        1.65863194       5.93499312      -0.48306819      -0.61591583      -0.43566197      -1.70851783      12.01100000
C        3.26465827       4.85511334      -2.18122118      -1.09396214      -0.30942352       0.88712386      12.01100000
C        3.65816009       4.80487561       0.32377655      -1.25821466       0.02798334      -0.44935396      12.01100000
C        5.06107281       3.30622806      -1.29559522       0.07506655       1.12072725      -0.32418842      12.01100000
C        6.06801347       1.31447946      -0.00352442      -0.16168133       0.01938808      -1.40901200      12.01100000
C        5.41719617       1.12652019      -2.55588647      -0.81862154      -0.22715763      -0.43716899      12.01100000
C        5.77226808       2.72169492      -0.11043230       0.12645467       1.19400127       0.30628159      12.01100000
C        5.07903586       2.52065036      -2.53160224       0.38551071      -0.95797758       0.40734041      12.01100000
C        6.06274642       0.55900901      -1.31015902       0.38196573       0.82179439       1.15963018      12.01100000
O       -0.13026596      -0.20653584       0.08579424      -0.63444755       1.42627519      -0.51072410      15.99900000
H        0.81032603      -0.14204290       0.50640242       0.13018868      -0.12266121       0.01584252       1.00800000
H       -0.08299672       0.05480291      -0.88974392       0.23064289       0.35847001       0.05453506       1.00800000
