243
Properties=species:S:1:pos:R:3:momenta:R:3:masses:R:1 C60-Ih=T time_fs=76000.0 step=76000 energy=-2133.8555331456537 free_energy=-2133.8555331456537 stress="0.0 0.0 0.0 0.0 0.0 0.0 0.0 0.0 0.0" pbc="F F F"
C       -1.39519960       2.22713754       2.19088875      -0.66176688      -0.25463025      -0.40644638      12.01100000
C       -1.73197179       1.03137277       2.78204814       0.90800574      -0.41095862      -0.63064970      12.01100000
C       -2.04227787       2.68155094       0.90871167      -0.66971632       0.12068106       0.35068894      12.01100000
C       -2.70021680       0.23532716       2.24557573       0.49718809      -0.76301643      -1.44196804      12.01100000
C       -2.42399375      -1.23527335       2.22608092      -0.34733745      -0.57671982      -1.27805352      12.01100000
C       -0.56826869       0.53697429       3.46797952      -0.27468159      -1.21897836      -0.42224823      12.01100000
C       -0.33590901      -0.86892869       3.38383914      -1.26746129      -1.25621746      -0.88364088      12.01100000
C       -1.27731009      -1.72092843       2.73995825       0.58662711       0.37093539      -0.59504509      12.01100000
C        0.08264245       3.40790348       0.05718044       0.04969524      -1.07029276      -0.40113909      12.01100000
C        0.63231283       2.93142737       1.30535511      -0.00116715       0.03849794      -0.38234514      12.01100000
C       -1.24907746       3.31714001      -0.08334405       1.14708216       0.14737012      -1.43388256      12.01100000
C       -0.04498227       2.54410724       2.43799998      -0.02799903       0.24915764       1.12160767      12.01100000
C        0.47924202       1.37455016       3.21379169       0.38972432      -0.21670319       0.59412621      12.01100000
C        2.01304962       2.42089272       1.02277837       1.21066593      -0.67249113      -0.35293815      12.01100000
C        2.59339477       1.48365591       1.82852637      -0.18536511       0.21576031       0.48138906      12.01100000
C        1.77129763       0.91457055       2.84943326      -0.22243319       0.09666652       0.07272837      12.01100000
C       -0.86075594       2.44559526      -2.41814148      -0.33037548       0.49494790      -0.51376254      12.01100000
C        0.62333431       2.64813555      -2.18543132       0.26144098      -0.03534851       0.89376114      12.01100000
C       -1.74594452       2.65739011      -1.33678751      -0.62510780      -0.33763868      -0.85255496      12.01100000
C        0.98986310       3.00467011      -0.93965638       0.77961653      -0.25731614      -0.63377339      12.01100000
C        2.25515070       2.58042987      -0.39275533       0.29569946       0.43806795       0.44185511      12.01100000
C        1.27139733       1.52279346      -2.84043503      -0.22280994      -0.08062054       0.47300192      12.01100000
C        2.38485548       0.98467551      -2.24848227      -1.29243838       0.96056028      -0.15656983      12.01100000
C        2.91949685       1.50313360      -1.05500600      -1.02388846       0.55190369       0.09018787      12.01100000
C       -3.06236988       0.69266468      -1.90197310       0.83383273      -0.36342461       0.42850209      12.01100000
C       -2.08562753       0.41809562      -2.96989215       0.93717822      -0.47437825       0.22490402      12.01100000
C       -2.84273259       1.81579759      -1.04880000      -0.52612491       0.37845474       1.85540108      12.01100000
C       -1.01222290       1.25475083      -3.18083614      -0.64247188       1.10372800       0.03955248      12.01100000
C        0.25220230       0.71964516      -3.42654282       0.38257251       0.48781559      -0.87874471      12.01100000
C       -1.83070235      -1.03366888      -2.88736485       0.01665898      -0.07518613       0.30719887      12.01100000
C       -0.61847492      -1.55354360      -3.12329487       0.27729986      -0.40835833       0.23014591      12.01100000
C        0.42768443      -0.62709071      -3.36796819       0.66798441      -0.45219009      -1.49809225      12.01100000
C       -3.19788246       0.59036520       0.95723338       0.10785975       0.86674667       1.07508318      12.01100000
C       -3.41515743      -0.55321894       0.17938305      -0.23938077       0.56156396      -1.28620335      12.01100000
C       -3.01021053       1.83294156       0.35008331      -0.21197549      -0.73854538      -0.07786461      12.01100000
C       -3.24445758      -0.52491946      -1.17886347      -0.65188202      -0.63756975       0.23929229      12.01100000
C       -2.55446487      -1.55359802      -1.79688537       0.21345121      -0.21728776       0.07690361      12.01100000
C       -2.92110453      -1.67374655       0.95570884      -0.18736222       1.83539664      -0.59797396      12.01100000
C       -2.23939385      -2.68147926       0.29062348      -0.94014531       0.34254912       0.12690476      12.01100000
C       -1.96817074      -2.60286778      -1.12710394      -0.62357455      -0.27520104      -0.58971542      12.01100000
C        1.32412753      -2.47355355      -2.12430953      -0.12540848      -0.13144666       0.13759512      12.01100000
C       -0.07650657      -2.69175822      -2.33233541      -1.28987180       0.65099368      -0.39291163      12.01100000
C       -0.81800642      -3.27526242      -1.32808696       0.11587240       1.14030934       0.53754045      12.01100000
C        1.91270166      -2.88587184      -0.86632192      -1.34934656      -0.34797287      -1.51566648      12.01100000
C        3.20022805      -0.76508856      -0.96019437       0.81838078       0.05705542      -0.51597915      12.01100000
C        2.63307056      -0.41599000      -2.26781571       1.54352379       0.34507423      -0.37799593      12.01100000
C        1.63593347      -1.25879130      -2.79596934      -0.05244304      -0.09313559      -0.37106243      12.01100000
C        2.89109014      -1.98380893      -0.34882256      -0.01351994       0.28128594       0.11025357      12.01100000
C        2.88547989      -0.74514273       1.80112400       1.20132555      -0.60650129      -0.65322860      12.01100000
C        3.30711034       0.45499766       1.17697478      -0.24410355       0.72515160      -0.11017183      12.01100000
C        3.43106352       0.44114824      -0.21709065      -0.63991544      -0.37016332      -0.01436397      12.01100000
C        2.72420090      -1.91482590       1.03419281      -0.73679738       1.01787563      -0.24394303      12.01100000
C        0.81303422      -2.57552321       2.36632219       0.73684010       0.37536528       0.93999507      12.01100000
C        0.99550102      -1.40360467       3.09069693      -0.30192012       0.20523763      -0.11189541      12.01100000
C        2.01533611      -0.50822741       2.84790155      -0.79305317      -1.32597226       0.21461504      12.01100000
C        1.64368387      -2.79906226       1.31208296       0.13083291      -0.00399827      -1.00180014      12.01100000
C       -0.17017522      -3.64864224      -0.05876163      -0.01980287      -0.04900090      -0.38243599      12.01100000
C       -1.08069621      -3.39049221       0.98452349       0.08425165      -0.19258322       0.15182468      12.01100000
C       -0.57078121      -2.71903140       2.08984475       0.34606854      -0.14744409       0.20134750      12.01100000
C        1.14886122      -3.43294886       0.15041869       0.29413976       0.90333460       0.58467346      12.01100000
C       -3.87904170      -2.23591460       4.48377976       0.51262808      -0.52133802       0.68013657      12.01100000
C       -4.35861364      -3.05082409       3.36088649      -1.09912428      -0.09035156       0.78423282      12.01100000
C       -3.60793352      -4.19127100       3.24247446       0.27078323      -0.43173357       0.04589149      12.01100000
C       -2.53967607      -4.02786129       4.23213867      -0.86107080       0.24628516       0.44127887      12.01100000
C       -2.64162347      -2.85746713       4.93923876       0.02595778      -0.78527389      -0.55156987      12.01100000
C       -1.62868009       3.46383738       5.09020638      -0.18504142       0.84381463      -0.64333088      12.01100000
C       -2.14002090       2.23944355       5.72156200      -0.92310388      -1.21088563      -0.08231717      12.01100000
C       -0.93267902       1.53817210       6.05493997       0.45201335       0.51945431      -0.32294844      12.01100000
C        0.19733998       2.51885337       5.92153103      -0.76270262       1.44230354       0.38919990      12.01100000
C       -0.23859785       3.68251145       5.19066583       0.26912871       1.50183092       1.62153996      12.01100000
C       -6.15267110       1.81107747       0.00777708       0.42813726      -0.04756503       0.46770882      12.01100000
C       -6.24793531       1.10004707       1.26378698      -0.37763109       0.60028949      -0.15338167      12.01100000
C       -5.63568206       1.87413199       2.33943891      -0.71075372       0.29921974       0.08116983      12.01100000
C       -5.25710720       3.08701593       1.71944050       0.32022822       0.44488052       0.15655267      12.01100000
C       -5.51744449       3.06849466       0.27977946      -0.14167621       0.27926234      -0.71666727      12.01100000
C       -3.94209452      -4.06745236      -2.83263816      -0.17339712      -0.81320492       0.78882586      12.01100000
C       -4.51432136      -4.15491167      -1.46689539       0.05428910      -0.00086697      -0.79791834      12.01100000
C       -5.35910077      -3.06476719      -1.26164512      -0.30715960       0.12767865       0.05567655      12.01100000
C       -5.29099633      -2.28714661      -2.51863839       0.03750153       0.93186524       0.89774940      12.01100000
C       -4.38840571      -2.83432700      -3.48012436       1.77029618       1.34763367      -0.57811076      12.01100000
C        1.87100755      -6.02132520       0.43794443      -0.08724939      -0.58736513       1.01715964      12.01100000
C        0.68381668      -6.19550313       1.18160512       0.38043522      -0.88100894       0.59553832      12.01100000
C       -0.37251977      -6.33959478       0.20576278      -1.26949159      -0.16144733       0.57092414      12.01100000
C        0.18841093      -6.24006731      -1.10900407       0.44138726       0.57578284      -0.33356910      12.01100000
C        1.59902260      -6.00438679      -1.01756592      -0.44064269      -0.12490988      -0.11172851      12.01100000
C        3.30005182      -1.38789829       5.26231661      -0.39379737      -0.31840532       0.96334489      12.01100000
C        2.19823153      -2.37159834       5.64270111       1.93487667       0.07295184      -1.07418471      12.01100000
C        2.38864944      -3.63134459       4.95305564      -0.54473847       0.70556529       0.32299978      12.01100000
C        3.65099813      -3.40383900       4.24642727       0.35515536      -0.32107811      -0.46398091      12.01100000
C        4.09799261      -2.03237671       4.34061814       0.10962509       0.55399564      -0.08958238      12.01100000
C        3.81519119       2.19567825      -4.38328198      -0.22532254      -0.35797349      -0.68452822      12.01100000
C        2.68961889       2.93139012      -4.95520340      -0.31714775      -0.81771366       0.80968016      12.01100000
C        2.55087623       4.15916807      -4.20389461      -0.47251397      -0.74862943      -1.34692624      12.01100000
C        3.57156172       4.24481363      -3.16001999      -0.24353206      -0.41725457       0.23913683      12.01100000
C        4.34253055       2.99780341      -3.30525811       0.34642673       0.47712327       0.86510861      12.01100000
C        0.27517255      -3.52048826      -5.29027729      -0.57941711       0.45783311      -0.08927142      12.01100000
C       -0.27402276      -2.36711932      -5.82809763       0.55640077       0.58801731       1.05030969      12.01100000
C        0.79911844      -1.47898591      -6.11129487       0.76937071       1.10432432      -0.19537652      12.01100000
C        2.03259462      -2.06218743      -5.58505739      -0.35554007      -0.26341158       0.28225270      12.01100000
C        1.71699902      -3.39763588      -5.16131698      -1.00317721       0.14050877       0.38390362      12.01100000
C       -4.15707066       2.14143763      -4.43337448      -0.16440783       1.13899264      -1.37210502      12.01100000
C       -3.54713018       3.33089975      -4.07389723      -0.19417869      -0.26948947      -0.56383909      12.01100000
C       -2.27760372       3.49256997      -4.84851551       1.07782037      -1.57184513      -0.20382470      12.01100000
C       -2.10118093       2.40788258      -5.73613576       0.08218126       0.89254275      -0.02995700      12.01100000
C       -3.27934769       1.52895964      -5.35127517       0.53810136       0.27553868      -0.92388579      12.01100000
C       -1.58106833       6.19654308       0.91480801      -0.96948853      -0.63679807       0.58104378      12.01100000
C       -0.18413240       6.32805434       1.19011869      -0.13452364       0.27963546      -0.20787912      12.01100000
C        0.41843434       6.39858340      -0.21477582       0.07882427       0.13845304      -0.24069755      12.01100000
C       -0.59383332       6.40971685      -1.26373542      -0.42963373      -0.34191804       0.97151357      12.01100000
C       -1.82984319       6.25419591      -0.49912026      -1.56733096       0.71588577       0.54593523      12.01100000
C        4.51808710       2.99266604       3.56234072      -0.32489669       0.32868128      -0.06406060      12.01100000
C        5.31524989       2.25893992       2.58123538      -1.38855988      -0.45985152       0.22168554      12.01100000
C        5.34693294       3.08095266       1.41752077       0.82806773       0.81124967       0.73347565      12.01100000
C        4.55667980       4.24472205       1.62007943       0.40584585      -0.46493843      -1.04188065      12.01100000
C        4.05396709       4.27584465       2.93221641      -0.08559756       0.35135608      -0.22410660      12.01100000
C        5.63744254      -3.09918179      -0.46958096      -1.18710080      -0.43043985       1.03707147      12.01100000
C        5.31838717      -3.06374659      -1.82079457      -0.99045484       1.05751654      -0.74975235      12.01100000
C        5.68995864      -1.73134064      -2.34088890       0.55031712      -1.06488807      -0.43240781      12.01100000
C        6.30480754      -0.94853696      -1.25355547      -1.09659553      -0.59608153       0.35686333      12.01100000
C        6.15506510      -1.79217567      -0.01685807      -0.92757770      -0.20311936       1.19111241      12.01100000
C       -4.98485251      -0.19970935       3.57352878      -0.20382429       0.90254616       0.55439462      12.01100000
C       -4.08724498       2.03910859       4.15834155       0.41956990       0.14159055      -0.52342131      12.01100000
C       -3.20034345      -0.02300864       5.27446092      -0.34953057      -0.64436964      -0.19605597      12.01100000
C       -5.06400157       1.19339473       3.47468922       0.42540564       0.12635336       0.17145063      12.01100000
C       -4.16946376      -0.83713125       4.50094688       0.80388392      -0.94159197       0.37243483      12.01100000
C       -3.29387173       1.52058734       5.23308756      -0.54413184       0.26578220       0.86481370      12.01100000
C       -5.58497064      -1.03499177       2.48419427      -0.73000212      -0.13669232       0.37651047      12.01100000
C       -6.00295691      -1.16286794      -0.00048838      -0.90460998      -0.71665813       1.96703206      12.01100000
C       -5.13256159      -3.20332235       1.18087902       0.27504630      -0.24818106       0.56165600      12.01100000
C       -6.18799732      -0.41136457       1.23326130       0.29271920      -0.07550712       0.14103699      12.01100000
C       -5.22265273      -2.49865251       2.34200464      -0.78456668      -0.74220044       1.56708504      12.01100000
C       -5.60271609      -2.53704802       0.04291527      -0.26476208      -0.23325575       0.25303069      12.01100000
C       -4.24785282      -4.44828251       0.88918299      -0.79742145      -0.27729130       0.37080084      12.01100000
C       -2.59858840      -5.54352499      -0.69372020       0.82835235       0.17637632      -0.23047726      12.01100000
C       -2.13993272      -5.51208164       1.78189143      -0.72373284       0.51937748      -0.22130730      12.01100000
C       -3.81266894      -4.75254500      -0.43540151       1.00898793      -0.85298586      -0.57652854      12.01100000
C       -3.40053261      -4.88869743       2.04038572      -0.72301047       0.34538160       1.40032391      12.01100000
C       -1.77491228      -5.85115054       0.34535064       0.26981757       0.46131988      -1.48846481      12.01100000
C       -0.96813119      -5.31932628       2.76877913       1.32123817      -0.07204768       0.25173548      12.01100000
C        1.61590199      -5.07989808       3.07439777      -0.12216289       1.16008509       0.10553819      12.01100000
C       -0.08853552      -4.07873267       4.72802298      -0.52981206       0.33127259       1.17847886      12.01100000
C        0.41121811      -5.63726012       2.40714087       0.35112994      -1.21826443       0.19661822      12.01100000
C       -1.25760101      -4.58030112       3.96864268       0.23070094       0.52029235       0.93376146      12.01100000
C        1.36010552      -4.35792508       4.30451679       0.80328723      -0.32086370      -0.22625413      12.01100000
C       -1.89332253      -0.64697160       5.66678898      -0.36264854       0.43475225      -0.85266992      12.01100000
C        0.61592288      -0.48233030       6.04895363      -0.44885962      -0.88874169       1.02046995      12.01100000
C       -0.26785214      -2.79421871       5.59662806       0.29276533      -0.08458943      -0.53702978      12.01100000
C       -0.72998195       0.09302070       6.10371507      -1.16882167       0.33816527       0.39270873      12.01100000
C       -1.56747200      -2.03801947       5.45620749      -0.67993508       0.13035080      -0.48741558      12.01100000
C        0.86404935      -1.87340039       5.84561337      -0.46460721      -0.67481036       0.16157639      12.01100000
C       -3.59860754       3.42851744       3.65639579      -0.46677262      -0.10851701       0.87879284      12.01100000
C       -3.47843581       4.86814519       1.38839786      -0.22561849      -0.40741032       0.51083178      12.01100000
C       -1.67076403       5.05491258       3.22972917       0.10671646       1.46775955       0.18375339      12.01100000
C       -4.20386935       3.90311073       2.37916784       0.26258779       1.09486372      -0.72036329      12.01100000
C       -2.33944945       4.08122714       4.02366157      -0.58084346      -1.16866033       0.72884737      12.01100000
C       -2.34871097       5.53068276       2.01588393       0.14522558       1.43283057      -0.40603416      12.01100000
C        2.45963498       2.82805590       4.87734287      -0.50028254      -1.23543897       0.71994213      12.01100000
C        4.00533652       0.82968562       4.58536771      -1.13907588       0.18933782       0.03332011      12.01100000
C        1.72550178       0.43488363       5.72752382       0.15461066       0.49568742       0.73467028      12.01100000
C        3.77260449       2.26436136       4.53126547      -0.16382406      -1.25198671      -0.15273219      12.01100000
C        1.48193361       1.97181373       5.60241641       0.64739376      -2.13260018       0.33298887      12.01100000
C        3.07005234       0.05700719       5.35525617       1.05314900      -0.46683153       0.27288238      12.01100000
C       -0.23303067       5.16500880       3.29324077      -1.01631448      -0.48695017      -1.00761959      12.01100000
C        2.01507916       5.56525270       2.14828155       0.72086697      -0.02375214       0.52982643      12.01100000
C        1.90887624       4.06070040       4.31692375       1.52138473       0.38474793       0.27988937      12.01100000
C        0.55869467       5.73195198       2.22059599       0.41121565      -1.40180115      -0.10372489      12.01100000
C        0.55246577       4.42641935       4.29794785       0.17845126       0.05950334       0.16060711      12.01100000
C        2.72208186       4.67494854       3.15000432       0.72263762      -0.66610722      -0.35621188      12.01100000
C       -5.93951239      -0.32696242      -1.31195439       0.81539201       0.74826784       0.40818274      12.01100000
C       -4.97877286      -0.19771009      -3.72225361      -0.27440670       0.60266097       1.13408504      12.01100000
C       -5.41192950       2.01227986      -2.33707395       0.37571893       0.54936027      -0.07714043      12.01100000
C       -5.52195397      -0.93142911      -2.53823948      -0.08680977      -0.61980408      -1.39721237      12.01100000
C       -5.96903124       1.17313558      -1.22349536      -0.08380282      -0.86929833      -0.30240493      12.01100000
C       -5.02578499       1.34193747      -3.62157681       0.40940282      -0.52118640       1.27044961      12.01100000
C       -4.82423043       3.34149111      -2.04066704       0.75988019       0.06069094      -0.50907040      12.01100000
C       -2.83602950       5.00404630      -2.51849073       0.54567807      -0.20511511       0.64250920      12.01100000
C       -3.77267439       4.83407737      -0.07356742       0.29439608       1.43137217       0.22020666      12.01100000
C       -3.87420954       4.11642161      -2.90903210      -0.06290614      -0.06036875      -0.64949805      12.01100000
C       -4.76698518       3.82383987      -0.62144397       0.98572181      -1.26111852      -0.17401450      12.01100000
C       -2.83295727       5.40377073      -1.04050709      -0.31251851       0.55062832       1.29026752      12.01100000
C       -1.92109638      -5.36295705      -2.07390281       0.96054124       0.43760831       0.83177615      12.01100000
C        0.28059675      -5.11280343      -3.41196384       1.48077935       0.56438166       0.69901529      12.01100000
C       -1.87367228      -3.96500872      -4.17404631       0.20574017       0.13021452       0.33410123      12.01100000
C       -0.49606003      -5.78014268      -2.31527927       1.02509826      -0.37457406      -0.93624951      12.01100000
C       -2.63755958      -4.56033443      -3.11890335       0.10697856       0.43120414      -0.58095174      12.01100000
C       -0.47162388      -4.26072112      -4.30236316       0.66499352      -1.14655281      -0.66473641      12.01100000
C       -2.44983193      -2.76044161      -4.88103800      -0.90338428       0.37738338       0.73125549      12.01100000
C       -1.84548771      -0.41099964      -5.94088546       0.10445596      -1.44897127      -0.20039982      12.01100000
C       -4.02015614      -0.77347531      -4.54752286       0.04927627      -1.65990605      -0.55501547      12.01100000
C       -1.66519115      -1.86948878      -5.68151161      -0.71663773       1.69890747      -0.48348404      12.01100000
C       -3.72754894      -2.18852966      -4.53234146       0.13106968       0.18150223      -1.00434689      12.01100000
C       -3.04925755       0.05385673      -5.34854260      -1.02362015      -1.39212323      -0.46257748      12.01100000
C        2.94204735      -4.84699405       2.38131164      -0.92318983       0.74770937      -0.20362249      12.01100000
C        4.97236440      -3.37920522       1.97172397      -0.25701867       1.33282029      -1.55667285      12.01100000
C        3.89329367      -4.69875592       0.04293715      -1.47404451      -0.04337399      -0.05227019      12.01100000
C        3.98414384      -3.97552266       2.93461864       1.33331085       0.23296851       0.71033425      12.01100000
C        2.90450700      -5.25260252       0.96631093       1.18764365      -1.30964753      -0.62134402      12.01100000
C        4.93645236      -3.83907495       0.55163970       1.14771974       0.24856000      -0.57743017      12.01100000
C        1.74469863      -4.92579569      -3.16528410       0.68250212       0.58794403       1.48962618      12.01100000
C        3.67068196      -3.40491494      -3.62217171       1.01879516       0.07760244      -1.25918823      12.01100000
C        3.68394664      -4.80204413      -1.42239574      -0.84616980       0.06992048       0.33500404      12.01100000
C        2.49210972      -4.02892685      -4.03317819      -0.12260147       0.01181125      -0.04850442      12.01100000
C        2.47344295      -5.47537144      -1.94575796      -0.35685485      -0.19238123       1.34812827      12.01100000
C        4.35663529      -3.94549569      -2.35107160       0.52579614       0.18544449       0.49654772      12.01100000
C        4.86090782       0.14188156       3.69172282      -0.16864929      -0.93348705       0.33851028      12.01100000
C        6.00950228       0.33681872       1.32072775      -0.34412803       0.37985010      -0.02337740      12.01100000
C        5.43442068      -1.95750893       2.27094458      -0.33021789       1.20033461       0.31052378      12.01100000
C        5.57802923       0.86717512       2.59119912      -0.33032642      -0.09109122       0.82750251      12.01100000
C        5.00208693      -1.30589303       3.53921672       0.22958400      -0.09046793       0.43176768      12.01100000
C        5.92634436      -1.18335451       1.18676738      -0.40444178      -0.69883328      -1.69278932      12.01100000
C        3.17543022       0.08780453      -5.19632552       2.26588725       0.67321614      -0.13706679      12.01100000
C        4.04258767      -2.04190108      -4.16728839       0.28265843       0.89996199       0.31218466      12.01100000
C        5.08597628       0.27166674      -3.54979488       0.67546119      -0.00328703      -0.79596878      12.01100000
C        3.14240387      -1.40059482      -5.02235683      -0.03665818      -0.49983008       0.16190801      12.01100000
C        4.14797740       0.83015710      -4.51719661       0.28577165      -0.59947080      -0.63723923      12.01100000
C        5.10101873      -1.20850934      -3.47730969      -0.37282313       0.66810828       0.55613485      12.01100000
C        1.89425853       0.65327362      -5.77611611       0.12250716      -0.14483755       0.21950853      12.01100000
C       -0.72529516       0.47817969      -6.25365538      -0.60513225      -0.46382281       0.05742498      12.01100000
C        0.28223478       2.78366581      -5.45402154       0.89828862       0.74276369       0.86338032      12.01100000
C        0.70516118      -0.07211823      -6.14100568      -0.24467040      -0.26525239      -0.03208651      12.01100000
C        1.57563815       2.11684830      -5.61989483      -0.36261163       0.21940253      -0.60263515      12.01100000
C       -0.83379768       1.94346113      -6.04582964       0.86343485       0.34938578       0.35102430      12.01100000
C        0.11744425       4.03250720      -4.75928065       0.25864785       0.67048681      -0.39622141      12.01100000
C       -1.61088063       5.15133590      -3.23900376      -0.65605978      -0.61028295      -0.29544400      12.01100000
C        0.94789494       5.38354328      -2.75264664       1.51863741       0.74085376      -0.53108361      12.01100000
C       -1.29254072       4.27789793      -4.43445012       0.12769661       0.75584014      -0.31965629      12.01100000
C        1.14933850       4.65419183      -3.99756303      -0.91678849       0.26386780      -1.72977967      12.01100000
C       -0.44034980       5.70678833      -2.48298571      -0.28606841      -1.12874651       0.91304419      12.01100000
C        2.03204856       5.61862654      -1.74053019       0.83554125       0.71627404       0.32507037      12.01100000
C        2.56459461       5.60811327       0.81692633      -0.62722961       0.77050240      -1.26943638      12.01100000
C        4.21060767       4.42251698      -0.80870807       0.87430886       0.07907397       0.32101784      12.01100000
C        1.70537541       5.92264135      -0.33377777      -0.81872896       0.16476289       0.06859629      12.01100000
C        3.32210736       4.90082107      -1.96868316       0.79674902      -1.13751588      -1.19826838      12.01100000
C        3.89271912       4.84398648       0.51812789      -0.07659056      -0.76303022      -0.74945839      12.01100000
C        5.03419291       3.20595196      -1.00468916      -0.09933180       0.55563178       0.34625975      12.01100000
C        6.13340357       1.14296751      -0.00348955       0.72034845      -1.14726932       0.07296297      12.01100000
C        5.53457359       1.07575996      -2.38418939      -1.12935047      -0.74120196       0.32450019      12.01100000
C        5.54194176       2.54755897       0.15581863       1.04941413       1.19174021      -0.64865580      12.01100000
C        5.13467083       2.44924616      -2.24224516      -0.21610627      -0.11436381      -0.33007873      12.01100000
C        6.10844714       0.45104108      -1.24828345      -1.03929664      -0.35661504       0.56353863      12.01100000
O        0.03123247       0.12437820       0.06097815       0.60660223       0.45500974      -1.33615713      15.99900000
H       -0.98520249       0.00602380       0.01669274      -0.02093600      -0.37839598       0.13944973       1.00800000
H        0.28296501      -0.80185181       0.30706131       0.20231569      -0.19595744      -0.38100694       1.00800000
