243
Properties=species:S:1:pos:R:3:momenta:R:3:masses:R:1 C60-Ih=T time_fs=95000.0 step=95000 energy=-2135.64977317533 free_energy=-2135.64977317533 stress="0.0 0.0 0.0 0.0 0.0 0.0 0.0 0.0 0.0" pbc="F F F"
C       -1.55929374       2.69629241       1.63608896      -1.23406699      -0.23847784       0.24125137      12.01100000
C       -2.52636762       1.62427934       1.87509468      -1.04783606      -0.08112624       0.30668129      12.01100000
C       -1.36206120       3.28696056       0.38482741       0.50168140      -0.17410156      -0.52870757      12.01100000
C       -3.26915026       1.28023351       0.71585787      -0.55442172      -1.13779534       0.82601857      12.01100000
C       -3.36213911      -0.18038157       0.56688235      -0.78494687       1.16956244      -0.58606571      12.01100000
C       -2.01180303       0.78953298       2.81159949      -0.60543323      -0.01810476      -0.12380492      12.01100000
C       -2.12510298      -0.57277392       2.55087510      -0.63518898       0.25560420      -0.45772195      12.01100000
C       -2.89827749      -1.09870855       1.50982712       0.10713157       0.24511901      -0.72253815      12.01100000
C        1.02919371       3.42140218       0.76518079       1.04168377       0.26341113      -1.10808345      12.01100000
C        0.74759610       2.83161645       2.05289846      -0.73562323       0.34443430       0.27831337      12.01100000
C       -0.08562550       3.49674423      -0.07564892      -0.58439859      -0.19594820       0.14964517      12.01100000
C       -0.52743580       2.53494503       2.52588468       1.27812825       0.05270005       0.89406721      12.01100000
C       -0.70853602       1.37797706       3.24449700      -1.09309573       0.66788043      -1.64676454      12.01100000
C        1.84823742       1.88832662       2.31836518       0.76322835       1.35852978      -0.66661095      12.01100000
C        1.60593695       0.75545186       2.95947032       0.47035441      -0.22272064       0.20174729      12.01100000
C        0.35589522       0.44054918       3.52509902      -0.21747793      -0.78567876      -1.66524209      12.01100000
C        1.20125092       2.75934964      -2.05359231       0.74582926      -1.37976223       0.01731436      12.01100000
C        2.27241737       2.40971505      -1.15423277      -0.76947811       0.54457270       0.13986271      12.01100000
C       -0.01213657       3.15234395      -1.44823287      -0.47882820      -0.73081235      -0.00939301      12.01100000
C        2.14514042       2.68491732       0.21915667       0.88912486       0.22220663       0.96412365      12.01100000
C        2.70434453       1.85741747       1.14067639      -0.97736633      -0.33165065       1.25003073      12.01100000
C        2.90246565       1.19391062      -1.62037286       1.27100110      -1.13193143      -0.20858128      12.01100000
C        3.41179818       0.38788493      -0.69846245      -1.42818199       0.62240018       0.46005780      12.01100000
C        3.35909698       0.73172976       0.67435861       0.19996006       0.37318579      -0.14645531      12.01100000
C       -1.30021447       1.62728919      -2.82713411       0.01490711      -1.11929093      -1.12720996      12.01100000
C       -0.12432506       1.08740312      -3.30135193      -0.16180322      -0.43682206       0.33163096      12.01100000
C       -1.27526327       2.72101528      -1.91834168       0.28114473      -0.52016164       1.08916014      12.01100000
C        1.09656401       1.66538112      -2.97222088       0.61444112      -0.51703321       0.20843992      12.01100000
C        2.15148160       0.71929059      -2.76501692       0.33589412      -0.32515780      -1.06350345      12.01100000
C       -0.25722806      -0.29972026      -3.46427158      -0.69714756      -1.43674303       0.05470947      12.01100000
C        0.71947341      -1.19816044      -3.24075013      -0.38965739      -0.22635533      -0.18821133      12.01100000
C        1.99199555      -0.68505168      -2.92588330       1.11072947       0.44711146      -0.06977226      12.01100000
C       -2.91595057       1.72181033      -0.57176446       0.05740925      -0.56074650      -1.17886659      12.01100000
C       -2.96699457       0.63354656      -1.50382333       0.15003405       0.77315296      -0.35829859      12.01100000
C       -2.11767113       2.71912064      -0.80215203       0.44590104       0.03492370      -0.01028750      12.01100000
C       -2.26291236       0.60041972      -2.69903497      -1.11054231       0.51781905      -0.08274247      12.01100000
C       -1.61544560      -0.63268366      -2.98578320      -0.75720464       0.19362419      -0.20021044      12.01100000
C       -3.22166295      -0.49254961      -0.78256461      -0.98512636       0.46691114       0.37636471      12.01100000
C       -2.67006739      -1.75343958      -1.13268194       1.93315306       1.60552256      -0.25541166      12.01100000
C       -1.88761789      -1.74827667      -2.33284095       0.57414609      -0.17538969       1.87558051      12.01100000
C        1.71406460      -2.72247874      -1.76309738       0.34257622      -0.30615441      -0.57517964      12.01100000
C        0.50169893      -2.41874875      -2.57700267      -0.42989027      -1.33647097       0.27357076      12.01100000
C       -0.79230222      -2.66996469      -2.13453397      -0.32375195      -1.75973025      -1.67474439      12.01100000
C        1.42317379      -3.13370661      -0.46934726       0.15376034      -0.57011080       0.09445182      12.01100000
C        2.94429349      -1.57186023       0.47302466       1.05550453       0.15663838       0.41490467      12.01100000
C        3.20945393      -1.05586755      -0.88266447      -0.19097334      -0.75264738      -0.59525339      12.01100000
C        2.58261452      -1.59764774      -1.96207374      -0.85018817       0.69745657       0.05381703      12.01100000
C        2.14928967      -2.62405239       0.69057087       0.60883588      -0.20245498      -1.19175812      12.01100000
C        1.29147104      -1.54387573       2.71088047      -0.24398343       0.32703676      -1.33838049      12.01100000
C        2.25161449      -0.46877702       2.52704641      -0.02911641      -0.06478259       0.39674682      12.01100000
C        3.03283021      -0.52882551       1.38701150       1.78635810       0.13237521       0.74486081      12.01100000
C        1.27284610      -2.65038922       1.80160238      -0.26970426      -0.54254217       0.70171406      12.01100000
C       -1.18460833      -2.58567712       1.98190302      -0.49772135       0.24648884       0.23825347      12.01100000
C       -1.09493912      -1.49991622       2.95683195       0.50647823       0.81430119      -0.31750156      12.01100000
C        0.14778179      -1.04984769       3.31426548       0.70849085      -0.12687169      -0.74893782      12.01100000
C       -0.01867428      -3.03635788       1.31205517       0.40092660       0.37828194       0.30648178      12.01100000
C       -0.97942756      -3.21920188      -0.87683507       0.47220969      -0.58177498       1.28258916      12.01100000
C       -2.24529861      -2.71200995      -0.21165358      -1.15426713       1.37836927      -0.12752829      12.01100000
C       -2.30533102      -2.33733910       1.12378618      -1.45360679      -0.98778625       0.32747460      12.01100000
C        0.06934300      -3.43801893      -0.05614943       0.46280255      -0.76267855       0.63273671      12.01100000
C       -6.02826286      -0.91768101       1.79863588      -0.41168891       0.00852643      -0.67619357      12.01100000
C       -6.02394318      -1.56546181       0.53586499      -0.22401105       0.70612272      -0.36499478      12.01100000
C       -5.59228944      -2.88245734       0.76572209       0.15635641      -0.39795084      -1.51141836      12.01100000
C       -5.17875411      -3.02934937       2.20974056       0.42913600      -0.19250674       0.38639693      12.01100000
C       -5.48510281      -1.76287578       2.75892876      -0.03188278      -0.94242676      -0.10446357      12.01100000
C       -3.10531295       4.05505576       3.76560020      -0.80121033       0.24485777      -0.35688359      12.01100000
C       -3.93435981       2.91023127       3.82532020      -0.88866817      -0.60336049       0.84511483      12.01100000
C       -3.37557692       1.92545718       4.79997972      -1.56644500      -0.31002934      -0.25930210      12.01100000
C       -2.15609567       2.61780897       5.27163829      -0.06011329       1.36973266      -0.53502294      12.01100000
C       -1.89193216       3.87797767       4.61635599       1.14017770      -0.76559745      -0.08933446      12.01100000
C       -4.72414092       3.22632892      -2.84971194       0.24058640       0.61974748       0.52906480      12.01100000
C       -5.61567939       2.58164202      -1.91277752       0.40843735       0.06230460       0.01478987      12.01100000
C       -5.45959170       3.23425476      -0.69356063       1.01402611      -0.46018395       0.49780373      12.01100000
C       -4.45058314       4.35533178      -0.88322608       0.80524751       0.90892533       0.84772857      12.01100000
C       -4.09720303       4.36294920      -2.25038075      -0.58071880      -0.02916811       0.33983303      12.01100000
C       -2.84557118      -3.29415084      -4.74575830      -0.38852703       0.41725881       0.61482994      12.01100000
C       -4.00291301      -3.11285931      -3.84244983       0.85386113       0.05708862      -0.78100966      12.01100000
C       -4.51439577      -1.76391200      -4.07876692       0.27305323      -0.06188557      -1.24315355      12.01100000
C       -3.71200605      -1.07428378      -4.97497804       0.75188726      -0.76109789      -0.96929704      12.01100000
C       -2.67742307      -2.00801669      -5.43450102      -0.51056961       0.49689760       0.14003201      12.01100000
C       -0.14206698      -6.40678757       0.91629679       0.09202895      -0.49810995      -0.47147642      12.01100000
C       -1.59192444      -6.22528550       0.91867652       0.40536994       0.40158811      -0.40421543      12.01100000
C       -2.01836467      -6.07940378      -0.49423820      -0.86895341      -0.03694367       0.32646222      12.01100000
C       -0.83361914      -6.24854503      -1.33409944      -0.90742186       1.00652595       0.05179407      12.01100000
C        0.33980281      -6.39497185      -0.52722044      -0.16411757      -0.54229431      -0.07597554      12.01100000
C       -0.37402121      -1.86235911       6.12857793      -1.63874665      -0.47582287      -0.90948658      12.01100000
C       -1.60017359      -2.44909451       5.68426520       0.83333528      -0.75930848       0.34670207      12.01100000
C       -1.38996373      -3.72096049       5.07964218      -1.19208596      -0.33340347      -0.94628187      12.01100000
C       -0.00888992      -3.90432000       5.10896972       0.55937066       2.30038729       1.00778975      12.01100000
C        0.65913806      -2.71307585       5.68737018       0.02507996       1.19701735       1.11550875      12.01100000
C        6.10349472       0.84550250      -1.83617716      -0.83603039       0.71026759       0.38857581      12.01100000
C        5.50613863       1.77357019      -2.74406202       0.96883174       0.82411398      -0.59906077      12.01100000
C        5.22442212       2.93929324      -2.07813565       0.26861880       0.38165996       0.80571783      12.01100000
C        5.56945660       2.86869966      -0.70536597       1.03101181       0.06593916      -0.31291757      12.01100000
C        6.10850032       1.51281649      -0.48926549      -0.16919510      -0.83011000      -0.42279302      12.01100000
C        1.87910652      -3.90521807      -4.64249620       0.54476906       1.71349647       0.82069438      12.01100000
C        2.15473781      -2.68356626      -5.36715236       1.17449747      -1.18089608      -0.12157146      12.01100000
C        3.38619396      -2.15516960      -4.90756499      -1.22632087       1.70423909       1.18861648      12.01100000
C        3.92347862      -3.05067751      -3.92944447      -0.81353453       0.10073843      -0.67769211      12.01100000
C        3.06960449      -4.17441039      -3.76297159       0.12180250      -1.75150843       0.36788089      12.01100000
C       -0.67055566       2.73709048      -5.58756671       0.57540366       0.01171352      -0.67380265      12.01100000
C       -0.10146180       3.83576413      -4.92164111       0.35713017      -0.20436529       0.79013338      12.01100000
C        1.28515759       3.69273182      -5.01424259      -0.86655964       0.08878351       0.49816663      12.01100000
C        1.57410398       2.35897394      -5.61572560      -0.96780803      -1.37838419       0.97226991      12.01100000
C        0.34026664       1.75114684      -6.01875680       0.16940250       1.54573506      -0.95912094      12.01100000
C       -0.24249003       6.51758316       0.52937818      -0.43401709       0.13557016       0.43296155      12.01100000
C        0.94546591       6.16557469       1.36869764       0.08585335      -0.08459959      -0.82712948      12.01100000
C        1.99550080       5.92437851       0.46483355      -1.74592907       0.71563122       0.22805210      12.01100000
C        1.51576495       5.96160058      -0.85564281      -0.79943020      -0.36415507       0.55079630      12.01100000
C        0.12058408       6.27304345      -0.83163115      -0.53287964       0.33075788      -0.11179527      12.01100000
C        2.64884119       2.09751215       5.52750357       0.03312919       0.11175875      -0.89082782      12.01100000
C        3.62795842       1.12774812       5.09525171       1.25402165       0.23617784      -0.85333115      12.01100000
C        4.46022149       1.79406510       4.02785154      -0.97670457      -0.07124569      -0.30251337      12.01100000
C        3.93317599       3.03135630       3.79659661      -1.25254106      -0.61611322       1.87753874      12.01100000
C        2.85866379       3.26415998       4.70170800      -0.20874752       0.89088880      -1.43897554      12.01100000
C        4.03000742      -4.29635141       2.31826516       0.23572476       1.16639983      -0.53094678      12.01100000
C        4.53049617      -4.34209991       0.97572110      -0.12951867       0.28376634      -1.10876517      12.01100000
C        5.31697114      -3.17852881       0.69553135       0.43063197      -0.87304896      -0.55670095      12.01100000
C        5.60606994      -2.52151110       1.89191329       0.83535771      -0.34080321       0.26771386      12.01100000
C        4.67032917      -3.20416431       2.95282978      -0.05671645       0.30310614      -0.32680829      12.01100000
C       -5.97665210       1.20812900       0.51715010       0.82877875      -0.07580131      -0.40545077      12.01100000
C       -4.84406215       3.21809698       1.64667416      -0.33986757       0.81372668       0.02827437      12.01100000
C       -5.24678204       1.00792147       3.05721564       0.49613516       0.97827580       0.59812380      12.01100000
C       -5.51414361       2.53800822       0.56973370      -0.63878466       0.86731972      -0.68343099      12.01100000
C       -5.86708863       0.44822574       1.82223600       0.69667989       0.37909033      -0.14609000      12.01100000
C       -4.82448464       2.42336960       2.89901940       0.69636608      -0.50605412       0.61532005      12.01100000
C       -6.14302867       0.43639028      -0.70206462       0.03595998      -0.28045122      -0.29532681      12.01100000
C       -5.27716537       0.39841487      -3.14741477       0.91462226      -1.10028029       0.70097512      12.01100000
C       -5.59525972      -1.87648673      -1.86231872       0.45873144       0.36584793      -0.00309027      12.01100000
C       -5.87122810       1.14164005      -2.01411717       0.84143367       0.13344457       0.74753217      12.01100000
C       -6.04349609      -1.05568254      -0.76963271       0.90864106      -0.30201177      -0.97176547      12.01100000
C       -5.21603241      -1.05161973      -3.06525127      -0.22006152      -0.35460956       1.29488997      12.01100000
C       -5.04252171      -3.21710020      -1.56909864       0.37384378       0.19153722      -0.70603225      12.01100000
C       -3.12343010      -4.86438071      -2.34207040       0.83375420      -0.08374147       1.41178325      12.01100000
C       -3.96813011      -4.69702162       0.15531407       0.18799951      -0.16221025      -0.89676953      12.01100000
C       -4.06865371      -3.73789165      -2.53893946      -1.25927466      -0.28397599       0.07168992      12.01100000
C       -4.96814404      -3.68937878      -0.19597158       0.89479197       0.24889771      -0.15732197      12.01100000
C       -3.18870059      -5.36053567      -0.93614107      -0.80687687      -0.89366099      -0.62764875      12.01100000
C       -3.61045165      -4.86570847       1.56626676      -0.72540298       0.21443103      -0.36684108      12.01100000
C       -1.54703100      -5.21666615       3.05173699       1.14428181       1.15872221       1.46951430      12.01100000
C       -3.43225211      -3.55521198       3.82449493      -0.10312065      -0.71594507       0.06208802      12.01100000
C       -2.38651349      -5.57047596       1.97095582      -0.83035010       0.59892594      -0.82609525      12.01100000
C       -4.17414791      -3.95329506       2.58065970      -0.39098779      -0.77216284       0.34873172      12.01100000
C       -2.24301990      -4.31689270       4.08856549      -0.19497426      -0.77355584      -0.27121117      12.01100000
C       -4.77288357       0.11902657       4.14217524       0.75694666      -0.47937427      -0.65254463      12.01100000
C       -2.62782081      -0.17543684       5.59215122       0.88687781       0.84557731      -0.18831947      12.01100000
C       -3.74496894      -2.24516163       4.40749400      -0.41406659      -0.35917972      -0.25927154      12.01100000
C       -3.75408447       0.55473100       5.05500921       0.55509143       0.16354931      -0.54285655      12.01100000
C       -4.76986819      -1.30188266       3.89861780       0.65096350       1.40211078       1.65017662      12.01100000
C       -2.73012474      -1.72261743       5.36964894      -0.88677536       0.69883270      -0.89632371      12.01100000
C       -4.05674525       4.43067455       1.57584657      -0.41120861       0.10792327      -0.02773483      12.01100000
C       -2.54197991       5.59994064      -0.13041665      -1.35117036      -0.96858770       0.40624668      12.01100000
C       -1.66697492       5.37695002       2.15183145       0.34414540      -0.85102451      -0.50586841      12.01100000
C       -3.68482465       4.85229322       0.24903575      -0.63132525       0.10679056       0.91989181      12.01100000
C       -2.98129102       4.65793015       2.54725067       0.21528386      -1.70784320       0.59206831      12.01100000
C       -1.55277054       5.98156177       0.88333154       0.29739085      -0.63321947      -0.57892363      12.01100000
C        0.32019457       2.46820685       5.64496022      -0.89186672       0.01543194       0.52452765      12.01100000
C        1.21126558       0.12260187       5.99758867      -1.03528723      -0.07521307       0.64392750      12.01100000
C       -1.27282436       0.49453382       6.04239908       0.02426063       0.85711512       1.09504634      12.01100000
C        1.43398188       1.59308122       5.83931167      -0.68442507      -0.71188837      -0.54453830      12.01100000
C       -1.04572829       1.88860412       5.76361412       0.57281501      -0.08581243      -0.75398525      12.01100000
C       -0.12480127      -0.38789819       6.23122811       0.19769708       0.95578908       0.85586319      12.01100000
C       -0.55816712       5.30143971       3.11121581       0.46612798       0.32954481       1.28197571      12.01100000
C        1.98675060       4.86977663       3.12714078      -0.05756893       0.95322981       1.10366753      12.01100000
C        0.48445686       3.79259511       4.88233853       0.88358618      -0.19290037      -0.81102348      12.01100000
C        0.76636603       5.51294260       2.57161724       0.08528529      -0.97808495      -0.42016767      12.01100000
C       -0.64284828       4.42829957       4.30740855       0.57066704      -0.86828565      -0.50030868      12.01100000
C        1.78274808       4.12162245       4.31538855       0.60813566      -0.23534520      -0.72081668      12.01100000
C       -4.28713038       1.10990373      -4.12664331       1.57222042       0.53120182      -0.07688767      12.01100000
C       -2.22396897       0.85730730      -5.58262030      -0.78121564       0.69255569       0.59237027      12.01100000
C       -2.87519839       3.15157724      -4.43608023      -0.00796837      -0.66722456       0.59751649      12.01100000
C       -3.41969036       0.36265760      -4.95671314       0.59776630      -1.14418654      -0.25902506      12.01100000
C       -4.05520911       2.54884478      -4.01975735       0.32154828      -0.86225087      -1.56587409      12.01100000
C       -2.07415928       2.26951757      -5.27542896      -0.08855936      -0.60472680       0.52851847      12.01100000
C       -2.10235049       4.34649846      -3.71182223       0.52271213       1.07159507       0.69675963      12.01100000
C        0.08051188       5.45302783      -3.05020448       0.15541377       0.40272340      -0.49040027      12.01100000
C       -2.07291617       5.59406445      -1.54677955      -0.33865709      -1.33575455       0.10629304      12.01100000
C       -0.71557077       4.68191614      -3.96580100       0.87470279       0.37605573      -0.29742706      12.01100000
C       -2.81203135       4.89570768      -2.55888758      -0.54705234       1.44803443      -0.14718510      12.01100000
C       -0.71123280       5.98607188      -1.90827397       0.81947283      -0.74288682       0.16666095      12.01100000
C       -1.99335881      -5.00629601      -3.22399586       0.50341743       1.82797409      -0.67333698      12.01100000
C        0.64888261      -5.24283355      -3.09695550       0.21434563       0.42933425      -0.95934932      12.01100000
C       -0.50147527      -3.70551590      -5.00104477      -0.29718090       0.49151928       1.18948305      12.01100000
C       -0.66904325      -5.46754505      -2.60236626       0.76481998       0.96112889       0.24947213      12.01100000
C       -1.76100588      -4.08690991      -4.40430565      -1.90006582       0.31371307      -0.49288046      12.01100000
C        0.64016685      -4.47706574      -4.40581702      -0.20763875      -1.37381990       0.96494051      12.01100000
C       -0.24407179      -2.40421687      -5.61457421      -0.11692541       1.17377724      -0.51919165      12.01100000
C        1.38477757      -0.52534589      -6.02941396      -0.72018056       0.42150382      -0.89488409      12.01100000
C       -1.20368821      -0.07790525      -6.06868320       0.19248606      -0.02176569       0.04954393      12.01100000
C        1.15359945      -1.90021005      -5.82882981      -1.27574333      -0.23718652       1.87835320      12.01100000
C       -1.40089072      -1.49762009      -5.78840330      -0.41837418       0.28431649      -0.36623491      12.01100000
C        0.17642048       0.36362167      -6.17905396       0.85567977      -0.74482037       0.42448131      12.01100000
C       -0.08846206      -5.35456775       3.12152202      -0.14762802      -0.69965465      -0.50574959      12.01100000
C        2.10496003      -4.26363524       3.81795348      -0.67401726       1.04335119       0.26178016      12.01100000
C        2.01852152      -5.62197942       1.60761160       0.69752526      -0.78721672      -0.90476758      12.01100000
C        0.70682176      -4.48853573       4.05445174       0.12017028       0.53224673       0.13113206      12.01100000
C        0.61324247      -5.87778604       1.97567911      -0.61810341      -0.22325226       0.98857917      12.01100000
C        2.74103443      -4.86518689       2.66025212       0.74833844      -0.35957512      -0.03897725      12.01100000
C        1.80473037      -5.43049970      -2.24721748      -1.02123746       0.85673348       1.47957718      12.01100000
C        4.01470907      -4.38703203      -1.42027725       0.37630384      -0.39084880      -0.12189791      12.01100000
C        2.51658829      -5.66810684       0.26282425      -0.61475754       1.24232758       0.34054551      12.01100000
C        3.05397193      -4.81706516      -2.45895544       0.43242565      -0.46955317      -0.88851314      12.01100000
C        1.57238563      -5.96376305      -0.88434107      -0.29083926       0.66709097       0.31549608      12.01100000
C        3.78519896      -4.95124193      -0.13382286       1.26222994      -1.40953854      -1.52759720      12.01100000
C        2.17464977      -0.82112129       5.51962919       0.11825253       0.92442823       0.83708337      12.01100000
C        4.29870166      -1.10052850       4.14747648      -0.03806668      -0.24882664      -0.07422719      12.01100000
C        2.76161132      -3.10525663       4.51332264       1.01188066      -0.69619922       1.20334724      12.01100000
C        3.52059656      -0.27851945       5.12250464      -0.92781379      -0.94159816      -0.61390291      12.01100000
C        1.99013553      -2.30853043       5.37625910       0.12506973      -1.32659771       0.12354165      12.01100000
C        4.04468333      -2.51255069       4.05494542       0.39830248       0.74729078       0.83337761      12.01100000
C        5.33276806      -1.09677812      -3.06221466      -0.89043715      -0.48760156       1.09667592      12.01100000
C        4.85331053      -3.22155010      -1.69900918      -0.08414274       1.63116990      -0.68164673      12.01100000
C        5.97689818      -1.18118857      -0.52756889      -0.14032433      -0.82217928       0.86761820      12.01100000
C        4.81254943      -2.49890580      -2.92087736      -0.05004201      -0.55927235       0.49130037      12.01100000
C        5.98860964      -0.56622754      -1.89854539      -0.61876154       0.69500715      -0.71950405      12.01100000
C        5.50814287      -2.62691892      -0.55406826       0.68834225       0.26093893       1.17780798      12.01100000
C        4.63878383      -0.14968077      -4.01630559       0.14433201      -0.22086178       0.14982420      12.01100000
C        2.61798332       0.11586132      -5.46897028       0.09791429       0.40853651      -0.51823700      12.01100000
C        3.69014615       2.20303558      -4.35965323      -0.69792374      -0.61929336       0.48630642      12.01100000
C        3.60659699      -0.80286953      -4.87127021      -1.45765808       0.83472718       0.17098844      12.01100000
C        4.65056625       1.26793908      -3.87982506      -0.17325951      -0.80548645       0.11567824      12.01100000
C        2.71083617       1.59029490      -5.32854601      -0.08373471       1.11511241       0.88806887      12.01100000
C        3.45778976       3.50003821      -3.80704698       0.44291106       0.40649497      -0.12247923      12.01100000
C        1.48101069       5.15623355      -3.12276778      -0.22070801      -1.01286398       0.93720072      12.01100000
C        3.64038128       4.81912529      -1.63355511      -0.83437647       0.59152714       0.36294017      12.01100000
C        2.10726316       4.15715317      -4.00272825       1.23989420      -0.71463627       0.10397835      12.01100000
C        4.18703300       3.83862860      -2.55970495       1.75504319      -0.54143499       0.30471294      12.01100000
C        2.29000477       5.40196276      -1.92863267      -1.37225544       0.09934300      -0.77942685      12.01100000
C        4.01778965       4.69105712      -0.19072298      -0.41443744      -0.30928291      -0.40155473      12.01100000
C        3.20820726       4.76524840       2.28541305       0.28565559      -0.10268507       0.00563323      12.01100000
C        5.09697606       3.13584933       1.67075625       1.12738653       0.12190011      -0.84626688      12.01100000
C        3.19797000       5.32963182       0.84948775      -0.63121161      -0.77947511      -0.68955600      12.01100000
C        4.93973760       3.68298547       0.22343980      -0.19818684      -0.84765519      -0.42486100      12.01100000
C        4.16799718       3.72387652       2.55405216      -0.20720869       0.24652949       1.88159487      12.01100000
C        5.49201344       1.71983869       1.85099271       1.22793193      -0.36566549       0.09291358      12.01100000
C        5.22887708      -0.36326723       3.11503232       0.63618220       0.25465846       0.64270851      12.01100000
C        6.03472083      -0.50944268       0.66889979       0.98318332      -1.16098056      -0.25498845      12.01100000
C        5.18864309       1.02226473       3.11780736      -0.55854009      -0.14658228       0.82910366      12.01100000
C        5.98696133       0.92010008       0.75229059       0.02941247       0.34247796      -1.00433071      12.01100000
C        5.71603012      -1.17369444       2.01141142       0.57336480       1.32131228      -1.00387747      12.01100000
O        0.14397455      -0.26342642      -0.01388381      -0.40819706       0.79189807      -0.46020660      15.99900000
H        0.00276148       0.34411582       0.77454567      -0.01666106       0.02611895      -0.08156165       1.00800000
H       -0.34528507       0.17224326      -0.74232077       0.20371040       0.45968186       0.18180148       1.00800000
