243
Properties=species:S:1:pos:R:3:momenta:R:3:masses:R:1 C60-Ih=T time_fs=98000.00000000001 step=98000 energy=-2133.6256526055217 free_energy=-2133.6256526055217 stress="0.0 0.0 0.0 0.0 0.0 0.0 0.0 0.0 0.0" pbc="F F F"
C       -1.56213380       2.91126905       1.26875285      -1.12167304      -0.20892302      -0.63586268      12.01100000
C       -2.46003752       1.92047315       1.45070663       1.63933151      -0.46188212       0.22645145      12.01100000
C       -1.12908709       3.36759202       0.01341061      -0.66901065      -1.05710095       0.42892399      12.01100000
C       -3.15780498       1.45446788       0.33383315      -0.68720964       0.17527411       0.01490373      12.01100000
C       -3.34141083       0.05053261       0.25251327       0.34403985      -0.70887100      -0.07473733      12.01100000
C       -2.16354329       1.04882498       2.60347805       0.38933855       0.37908025       0.46402558      12.01100000
C       -2.52370975      -0.31478505       2.48387883       0.90699310       0.71190700      -0.65763611      12.01100000
C       -3.08376375      -0.88566113       1.30849885      -0.77878027      -1.05434590      -0.05765498      12.01100000
C        1.05080022       3.27544053       0.69662494      -1.21505506      -0.33253675       0.20830750      12.01100000
C        0.72801890       2.89060704       2.05133125      -0.51872607      -0.48899611      -0.41230834      12.01100000
C        0.17276492       3.57999807      -0.27190290      -0.42674029      -0.66708733       0.75492656      12.01100000
C       -0.57198111       2.70856555       2.36297931       0.33927124      -0.13853745      -0.64187715      12.01100000
C       -0.95706884       1.51869503       3.06948147       1.00641072       0.01681346       1.21726911      12.01100000
C        1.69947220       1.92427758       2.46940108      -0.37883302      -0.29435759       0.04856855      12.01100000
C        1.34180416       0.80702313       3.15575668      -1.88092873       0.25290801      -1.29010176      12.01100000
C       -0.01753791       0.58798413       3.47008233       1.24530820      -0.91970016      -0.79145830      12.01100000
C        1.50740139       2.43548915      -1.98896620      -0.18698120      -1.25862685      -0.10064951      12.01100000
C        2.56448347       2.18591575      -0.94134436       1.03436365       0.21402706      -0.13468139      12.01100000
C        0.37657552       3.14544909      -1.69172360       0.69737047       0.97912361      -0.27393622      12.01100000
C        2.34654662       2.62942205       0.39048652      -1.07499987       1.18039033       0.12869845      12.01100000
C        2.59310657       1.74996752       1.44417794       0.17868357      -0.01729002       0.68331833      12.01100000
C        3.06742657       0.94076424      -1.20129522       0.21799983      -0.18807221      -0.31898770      12.01100000
C        3.48682397       0.11782403      -0.10358353       0.45441516       0.73668771      -0.88701515      12.01100000
C        3.17985440       0.50657879       1.17158323       0.77492059      -0.61220661      -0.59419261      12.01100000
C       -0.90374893       1.59643451      -3.12965738       1.20686591       1.26288178      -0.37883572      12.01100000
C        0.27495532       0.88644641      -3.45914893       0.60539564       0.46778614      -0.14136248      12.01100000
C       -0.89773218       2.64288711      -2.16343080       1.90460829       1.08863380      -0.01452470      12.01100000
C        1.43254376       1.29194247      -2.77509664      -1.05830344       0.13236742      -0.37996922      12.01100000
C        2.41637073       0.35934801      -2.37558415       0.11884234       1.66477558       0.84063110      12.01100000
C       -0.01180096      -0.50228762      -3.42854597      -0.71164982       0.56200480       0.41803541      12.01100000
C        0.89469256      -1.43102672      -3.02399869       1.35231010      -0.30107795      -1.17587663      12.01100000
C        2.19147143      -0.99219799      -2.53450424      -0.69156681       0.16639043      -1.22899106      12.01100000
C       -2.89154274       1.89045478      -1.00014777       0.10245186       0.07689222      -0.43186142      12.01100000
C       -2.86601324       0.71201825      -1.87192596      -0.04693134      -0.67072049       1.29821890      12.01100000
C       -1.84822198       2.86289399      -1.07546597      -0.33306065      -0.41396376      -0.86608137      12.01100000
C       -1.90746993       0.59898837      -2.88956932      -0.64037731      -0.37994324      -0.77856418      12.01100000
C       -1.40923300      -0.69493485      -3.15205317       0.12409716      -1.74198149       0.21276800      12.01100000
C       -3.36151543      -0.39482219      -1.05702531      -1.54517083       0.12458742       0.06522250      12.01100000
C       -2.72168462      -1.63300103      -1.26446182       1.79375620       0.03073980       1.06835080      12.01100000
C       -1.77551149      -1.73397890      -2.36208338      -0.35650866       1.15407476       0.97547459      12.01100000
C        1.55231729      -2.78591462      -1.26291824       0.67259420       0.80437847       0.35876548      12.01100000
C        0.52790089      -2.57205994      -2.36074307      -0.87386863       0.30224659       0.07860624      12.01100000
C       -0.79704329      -2.79791448      -2.03372388      -0.77057678       0.14953892      -0.62273699      12.01100000
C        1.18907237      -3.27316109      -0.03257580       0.78576347      -0.22935039       1.03874454      12.01100000
C        2.85774116      -1.74963607       1.03034975      -1.27903793       0.25292163       0.05833075      12.01100000
C        3.12754929      -1.36983165      -0.25799181       0.07845580       0.33114163       0.98622627      12.01100000
C        2.56289751      -1.89918377      -1.43416837       0.55728094      -0.36847896      -0.72650303      12.01100000
C        1.86739616      -2.71580572       1.11442504      -0.30495346      -0.31878196      -0.61499294      12.01100000
C        0.90841966      -1.43436767       3.04132341      -0.08899862      -0.07203386       0.37195681      12.01100000
C        1.88874861      -0.45542906       2.84863806      -0.51501993      -0.56715758      -0.83883663      12.01100000
C        2.93008587      -0.66187616       1.93911112      -0.03393749      -0.25900787       0.41463716      12.01100000
C        0.93809840      -2.52411344       2.14561424       0.72159290      -0.90536133       0.31119113      12.01100000
C       -1.53314805      -2.35648258       1.95536211       0.26954398       0.43220110       1.08869718      12.01100000
C       -1.48803932      -1.26938863       2.90944253      -0.74176400      -0.05350491       0.62361024      12.01100000
C       -0.28630610      -0.78341203       3.40718316       0.08060862      -0.47279967      -0.39213035      12.01100000
C       -0.39258641      -3.06742334       1.57250275       0.65722168      -0.06869665       0.00407706      12.01100000
C       -1.13681273      -3.28306391      -0.68843079      -0.24421854       0.49935906       1.39639879      12.01100000
C       -2.32259307      -2.55381505      -0.34113487       0.07526705      -0.16181694      -1.47193861      12.01100000
C       -2.50603024      -2.12503972       0.93741294      -0.79769671      -0.27014086      -0.31186100      12.01100000
C       -0.14619138      -3.50531245       0.23885427       0.18846758      -0.11375940       0.02964655      12.01100000
C       -6.26262957      -0.69932333       1.34260642      -0.98423508       0.49330208       0.45924606      12.01100000
C       -6.18712905      -1.42407310       0.00870841       0.07330726      -0.87567926       0.65987603      12.01100000
C       -5.71136994      -2.69236877       0.26402547      -0.15488194       0.57667786       0.69230084      12.01100000
C       -5.44597009      -2.81512102       1.68112154       0.22577042       0.07384549      -0.22057664      12.01100000
C       -5.84020321      -1.58469878       2.41781795      -0.15015486       0.18682288      -0.56698893      12.01100000
C       -3.28184240       4.13473120       3.38666176      -0.18304712       0.57772551      -0.24052312      12.01100000
C       -4.20031016       3.01469379       3.52409893      -0.89789655       0.25599026       0.02814219      12.01100000
C       -3.66717913       2.14805550       4.56331225      -0.08922499       0.82329493       0.17802196      12.01100000
C       -2.54750218       2.69584244       5.12431608      -0.39266901      -0.45445141      -0.65902876      12.01100000
C       -2.19381759       3.83443791       4.44278569       1.11131965      -0.17711830       0.33526460      12.01100000
C       -4.31972304       3.37348915      -3.31161588      -0.19144682      -0.49774877       0.47157174      12.01100000
C       -5.28878199       2.75934751      -2.40863425       0.83687756      -0.39316660      -0.21021086      12.01100000
C       -5.25015909       3.46619006      -1.14225183      -0.29739478       0.09683728      -0.45461135      12.01100000
C       -4.27091139       4.53531139      -1.20542035       1.13319338       0.44313496      -0.85594814      12.01100000
C       -3.73676760       4.56445814      -2.60515814       0.05805920       0.31585926       0.05688003      12.01100000
C       -2.62021820      -3.03266939      -5.02114321      -1.34330667       0.70276369      -0.48483375      12.01100000
C       -3.84748328      -2.87325681      -4.30469186       0.05361101      -0.68664667       1.00993976      12.01100000
C       -4.40282089      -1.60003499      -4.52891147       0.61855066      -0.04822163      -0.83557842      12.01100000
C       -3.49476061      -0.89787662      -5.41084595      -1.45043653      -0.09709909       0.16356836      12.01100000
C       -2.37224898      -1.84033156      -5.79391226      -0.42440435      -0.31009138      -0.05545038      12.01100000
C       -0.52372749      -6.34069882       0.71957166       0.23788508       0.16946507       0.82620977      12.01100000
C       -1.91303952      -6.09441201       0.68448222      -0.04675712       0.76733733       0.46773329      12.01100000
C       -2.14311653      -5.93712399      -0.77537963      -0.73679127       0.32842081      -0.42311647      12.01100000
C       -0.95698546      -6.06716474      -1.55929186      -0.44412934      -0.29160647      -0.25073568      12.01100000
C        0.06696141      -6.23921623      -0.61350135      -0.60674138      -0.15172995       0.33418700      12.01100000
C       -0.91497783      -1.90177842       6.10904551      -0.72169256       0.33172940      -0.88363449      12.01100000
C       -2.15625076      -2.44786893       5.62790164       0.63931433      -1.48221550       0.87872469      12.01100000
C       -1.85168622      -3.73726402       4.96582678       0.45291385      -1.20394128      -0.21031645      12.01100000
C       -0.43084673      -3.93677885       4.99127392       0.43161989       0.36516969       0.46850855      12.01100000
C        0.13025492      -2.72581856       5.75846323       0.32491553       0.68196523      -0.79103380      12.01100000
C        6.12210838       0.70021181      -1.16474209       0.07302349      -0.57003541       0.45343945      12.01100000
C        5.74813569       1.57005729      -2.21804311      -0.16965738       0.35544000      -0.38355943      12.01100000
C        5.52083945       2.93024966      -1.67126649       0.91451502       0.84813392      -0.96753304      12.01100000
C        5.74995838       2.80876683      -0.30075049       0.84142895       0.78651276      -0.17076590      12.01100000
C        6.14043065       1.46110874       0.05288702       0.16815357       1.10348945       0.09031113      12.01100000
C        2.27812040      -3.86102785      -4.44324994       0.50155017       0.02199556      -0.49034806      12.01100000
C        2.44089975      -2.58841288      -5.06751754       0.18086014       0.60281887       0.68130133      12.01100000
C        3.68624980      -2.08423232      -4.65509238      -0.09078018      -0.44587846      -1.17517611      12.01100000
C        4.30080613      -3.02835571      -3.65331275      -0.03135510       0.27355909       0.52393489      12.01100000
C        3.34749342      -4.12524033      -3.56863728       0.95618876      -0.20831301       0.69513197      12.01100000
C       -0.15365193       2.65080483      -5.71280090       0.36527129       0.82572633      -0.06798974      12.01100000
C        0.33253378       3.82015911      -5.10812770       0.24550701       0.05114607       0.09739295      12.01100000
C        1.75292570       3.62977709      -4.88479723      -0.18533958      -0.10429546       0.28450548      12.01100000
C        2.12732171       2.33028002      -5.50782979      -0.61085769      -0.41348675      -1.34033549      12.01100000
C        0.87071310       1.75214589      -6.01722229       0.14587999       0.43266693      -0.47561116      12.01100000
C       -0.09692103       6.19773941       0.56576536      -0.42869498       0.48272278      -0.47500817      12.01100000
C        0.94184271       6.03661964       1.51995225       0.61417276       0.05143051       0.80695042      12.01100000
C        2.14122820       5.82336084       0.75333779      -0.67009177       1.24854140       1.16367134      12.01100000
C        1.79650147       5.82918232      -0.60076458       0.89754799       0.34807276       0.51990233      12.01100000
C        0.48445448       6.18392916      -0.77917584       0.44127535       0.47583888       0.87376742      12.01100000
C        2.24886948       1.78749547       5.68320371       1.32931553       0.75160668       0.66516062      12.01100000
C        3.33913047       0.84258625       5.45802234       1.07009041       0.45700964      -0.02875043      12.01100000
C        4.21059304       1.51197611       4.46743361       0.36367231      -1.02405634       0.72570482      12.01100000
C        3.86015633       2.87027649       4.21546290      -1.16441080       2.18201778       0.81013883      12.01100000
C        2.53323540       2.94741719       4.86266660      -1.60979624      -0.35014679      -0.54662795      12.01100000
C        3.76034288      -4.55719722       2.48869359       0.12878876       0.50598664      -0.18448494      12.01100000
C        4.34425794      -4.62952078       1.15708455       0.50856831      -0.18919711       1.38335158      12.01100000
C        5.25615439      -3.44655534       1.00557978       0.41801165      -0.52692683      -0.79970967      12.01100000
C        5.22092232      -2.81431564       2.25563769       0.39755551      -0.32711444       0.23440579      12.01100000
C        4.26012137      -3.40247114       3.11034207       0.28011799       0.19002391      -0.31988532      12.01100000
C       -5.85494035       1.37124662       0.08090541       0.51115353      -0.03091523       0.10967862      12.01100000
C       -4.81968087       3.32378009       1.26597523       0.60737939      -0.55342269       0.07222552      12.01100000
C       -5.42847283       1.17385809       2.62220055       0.79266148      -0.52841720      -0.15199057      12.01100000
C       -5.37536430       2.75085932       0.05984958      -0.07853732      -0.50987579      -1.17650954      12.01100000
C       -6.02954502       0.62806571       1.32460966       0.40360431       0.10033175       1.07770732      12.01100000
C       -5.03583551       2.59574635       2.49212369       0.08625000      -0.26000796       0.89559311      12.01100000
C       -5.91429575       0.69121066      -1.27552713      -0.40110635      -0.20925990      -0.29573350      12.01100000
C       -5.03181347       0.73642418      -3.64611506      -0.12932174      -1.14876631      -0.10089222      12.01100000
C       -5.40584525      -1.57160240      -2.29040896      -0.03016572       0.68344345       0.28209244      12.01100000
C       -5.52018272       1.37859693      -2.43256080      -0.13487907      -0.20464959       1.03758497      12.01100000
C       -6.04811392      -0.81109013      -1.22821153      -0.37430021       0.19116915      -0.22482315      12.01100000
C       -4.98795193      -0.79301710      -3.52225691       0.86424136      -0.19636490       0.39512955      12.01100000
C       -4.85469301      -2.91368821      -1.99384158       0.12434017       0.39679866       0.47686984      12.01100000
C       -3.00700238      -4.51771182      -2.56067169       0.47265881      -0.42104773      -0.74831012      12.01100000
C       -4.11414994      -4.57152655      -0.23999576       0.51341039      -0.72397600      -1.63504117      12.01100000
C       -3.93421689      -3.52989661      -2.97822245       1.31905256      -0.00857338      -0.53165482      12.01100000
C       -4.90642539      -3.35840256      -0.68806524       1.30916037      -0.35472225      -0.05520634      12.01100000
C       -3.19213622      -5.11070429      -1.19755617      -0.63546620      -0.54901214       1.84064480      12.01100000
C       -3.83923803      -4.66515656       1.16424420       1.08924679       0.36023622      -1.05618134      12.01100000
C       -1.95710634      -5.00708158       2.87013857      -0.89802873      -0.02073036       0.32569072      12.01100000
C       -3.77440960      -3.31745440       3.43368529       0.74948444      -0.72676457      -0.43490262      12.01100000
C       -2.61122174      -5.30895400       1.56397444      -0.31973863      -0.54022753       0.41868434      12.01100000
C       -4.43676014      -3.67111749       2.15812262       0.38947619      -0.41710039      -0.88977687      12.01100000
C       -2.67728299      -4.19322153       3.84629029      -0.53555613      -0.67862905      -0.10094989      12.01100000
C       -4.88692540       0.31477420       3.66831749       0.24289633       0.81252108      -0.25558715      12.01100000
C       -3.11234068      -0.21960296       5.33507647       1.38728652      -1.25087141       0.17055947      12.01100000
C       -4.13176343      -2.11803713       4.12007421      -0.82138564      -0.24628848      -0.10816675      12.01100000
C       -3.96206891       0.73394625       4.64070309      -1.40854826       0.79059039       1.35954214      12.01100000
C       -5.08451133      -1.12644454       3.51967012      -0.00641488       0.15072143       1.09210023      12.01100000
C       -3.16952514      -1.63098259       5.16108539      -0.02958442       0.82147464       0.38374371      12.01100000
C       -3.92367254       4.42964874       1.12391194      -0.32712159       0.57754300       0.16336467      12.01100000
C       -2.23538752       5.50277755      -0.37400598       0.00047678       0.24114177       0.60877961      12.01100000
C       -1.72525591       5.51053484       2.13957929      -0.26450095       0.52234777       1.10942793      12.01100000
C       -3.52302524       4.98992449      -0.12204334      -0.69749825       0.24195683       0.36710734      12.01100000
C       -3.05665831       4.83778363       2.26844248       0.44232235       0.15487573       0.13886301      12.01100000
C       -1.44898456       5.88845643       0.78819524       0.47068171       1.28573524      -0.11484542      12.01100000
C       -0.07255555       2.33620103       5.67014984       0.12732658      -0.37489116       1.69265229      12.01100000
C        0.69094114      -0.04873414       6.06070042      -1.74263660      -1.13619671       0.50295351      12.01100000
C       -1.86013525       0.37622032       5.82652372       0.08070894      -0.36424498      -0.79504003      12.01100000
C        1.00465373       1.45287471       5.99280547       0.27470909       0.71157264       0.11695921      12.01100000
C       -1.52537371       1.84713465       5.66556359      -0.43427933       0.43705626      -2.19454038      12.01100000
C       -0.74290296      -0.48267114       6.27766948       0.51071630       1.57467231       0.08524380      12.01100000
C       -0.66404586       5.29553204       3.16652801      -0.72557347      -0.01866033      -1.05415177      12.01100000
C        1.86735320       4.82948416       3.38985808      -0.14582957      -0.46205241       0.32521539      12.01100000
C        0.17827600       3.64896058       5.00838912       0.56005348      -0.01924613      -0.28407658      12.01100000
C        0.68544414       5.53711282       2.87220846       0.40851202       0.82943729      -0.46948150      12.01100000
C       -0.92542419       4.35705093       4.27881148       0.52940389       0.40620700       0.22333171      12.01100000
C        1.54424744       3.91346401       4.46614484      -0.02046031       0.35955429      -0.80837431      12.01100000
C       -3.96612525       1.35884224      -4.52950154      -1.36420435      -1.19570902       0.66116141      12.01100000
C       -1.85747461       0.93468254      -5.65980097      -1.01767395       0.49469182       0.13240490      12.01100000
C       -2.31938790       3.32216118      -4.64346410      -0.18018135       0.32274779       0.04928111      12.01100000
C       -3.14721387       0.45777970      -5.32343664      -1.09733477      -0.03785407      -1.57592183      12.01100000
C       -3.56080442       2.68526157      -4.30035527       0.25179150      -0.05601853      -0.92958832      12.01100000
C       -1.49628633       2.31416587      -5.43015325      -0.47722450       0.67041190       0.55801136      12.01100000
C       -1.76000295       4.39112781      -4.05651779       1.03078940       0.15667407       2.10287332      12.01100000
C        0.44559158       5.42829595      -3.13772208       0.52669446       0.23232784       0.59100284      12.01100000
C       -1.64933739       5.46080003      -1.73865021      -0.87179058       0.15622887       0.20949040      12.01100000
C       -0.31481586       4.68134723      -4.22896401      -0.19993244      -0.25387186      -0.29701821      12.01100000
C       -2.46515271       4.96682851      -2.84328111       0.51080962       0.11023949      -0.44364718      12.01100000
C       -0.32928024       5.79464322      -1.91870381       0.44859354      -0.48542755       0.52701267      12.01100000
C       -1.89431251      -4.92062485      -3.43619045      -0.09119705       0.11550765      -0.56799896      12.01100000
C        0.64342429      -5.27017621      -3.17914581      -0.30680872       0.18325374      -0.71026290      12.01100000
C       -0.20290561      -3.72425105      -4.96597476      -0.24931074      -1.43404002      -0.72520065      12.01100000
C       -0.71362215      -5.59842492      -2.79610401       0.16609417      -0.13217157      -0.41174988      12.01100000
C       -1.59920167      -3.96882013      -4.58749756       0.66706590      -0.00750727      -0.07924067      12.01100000
C        0.94597309      -4.32939727      -4.28557130      -0.15815222       0.49981367       0.18974324      12.01100000
C        0.06072307      -2.37977998      -5.66993979       0.51287370      -0.01667061      -0.66740988      12.01100000
C        1.76321700      -0.46008648      -5.81241586      -0.27801267      -1.52964709      -1.17897099      12.01100000
C       -0.82116187      -0.07041413      -6.14038771       0.98735350      -0.46155169       1.21705800      12.01100000
C        1.43466610      -1.83275585      -5.66163463      -0.59754160       0.53078474      -1.10170705      12.01100000
C       -1.05170562      -1.42898689      -5.93023445       0.91778051      -0.13179753      -0.41936333      12.01100000
C        0.65705025       0.32110722      -6.24652125      -0.15579468      -1.62750949       0.44269538      12.01100000
C       -0.47095460      -5.33716109       2.99568696      -0.67155671      -0.55203517      -0.62150860      12.01100000
C        1.75622567      -4.41103066       3.77107114      -0.57593721       0.48923424      -0.31476427      12.01100000
C        1.62525310      -5.70173018       1.67824102      -0.27063466       0.46785608       0.28016649      12.01100000
C        0.29089521      -4.65883344       4.02307672      -0.33667205      -0.57494818       0.52615127      12.01100000
C        0.19909642      -6.03790390       1.85010442       0.25137192      -0.74115041       0.11305045      12.01100000
C        2.36697260      -4.95840404       2.63037771      -0.62569825      -1.01185728      -0.15034223      12.01100000
C        1.80876882      -5.46152925      -2.13385127      -1.29702323       1.15931634       0.12665349      12.01100000
C        4.07098617      -4.65405093      -1.22332441       0.03748533      -0.14489253       0.54221461      12.01100000
C        2.25378497      -5.64274963       0.40754042      -1.37074184       0.36725853       0.16762520      12.01100000
C        3.13791116      -4.90830096      -2.34913871       0.81652660      -1.10745285       0.24389120      12.01100000
C        1.52701831      -5.92710340      -0.78071591       0.17556335      -0.97430843      -0.52211502      12.01100000
C        3.61503610      -5.11225428       0.06031907      -0.98615170       0.06187177      -0.17201150      12.01100000
C        1.75014957      -1.03900111       5.76205367      -0.23016682       0.00841753      -0.48894740      12.01100000
C        3.99531689      -1.25424610       4.57126803      -0.10946236       0.22046572      -0.01243621      12.01100000
C        2.38519181      -3.21728754       4.66992817      -0.26435423       0.53872904      -0.28580339      12.01100000
C        3.05820681      -0.57473261       5.42316562      -0.46510831       0.74819292       1.02051047      12.01100000
C        1.48719280      -2.49878652       5.67135892      -0.55996248      -0.19823939      -0.77889672      12.01100000
C        3.61200131      -2.61445241       4.14436491      -0.41724077       0.22657001       0.33578903      12.01100000
C        5.39689971      -1.20647881      -2.55729865      -0.54125256       0.93992632      -1.02241770      12.01100000
C        5.09193137      -3.52764664      -1.38005543      -0.57719288      -1.33102346      -0.30210524      12.01100000
C        6.00889975      -1.41752251      -0.09438195       1.08788787      -1.59641352       0.50346790      12.01100000
C        5.13245662      -2.62325582      -2.56834298      -1.60777092      -0.26655882      -0.35441035      12.01100000
C        6.06355491      -0.64920743      -1.32350803       0.96976988       0.59316481       0.35298812      12.01100000
C        5.68814623      -2.91754573      -0.19591210      -1.11727885       0.35225572       1.33566790      12.01100000
C        4.95139586      -0.26595152      -3.58871844       0.67772857      -0.36048052      -0.65886179      12.01100000
C        3.08748977       0.09949523      -5.37576733      -0.49797186      -0.85619573       0.68312245      12.01100000
C        4.05449129       2.18109230      -3.99169143       0.16135036       0.74125828       1.05993379      12.01100000
C        4.04825931      -0.70513629      -4.65764842      -0.62171579      -0.43227743      -0.46265029      12.01100000
C        4.98922091       1.20038856      -3.28541051       0.97041626       0.03421045       0.57389008      12.01100000
C        3.21648325       1.50926658      -5.05906375       1.48316597      -0.50436175      -0.43253603      12.01100000
C        3.72319626       3.44187457      -3.35759289      -0.84977839       1.81845608       0.25953291      12.01100000
C        1.92137411       5.15815841      -3.01062898       0.15275077       0.37941998      -0.45930746      12.01100000
C        3.75338870       4.59420478      -1.20793448       1.23625239       0.53969698      -2.51489268      12.01100000
C        2.61984601       4.22474187      -3.83219677       1.00112771      -0.24493917      -0.79718399      12.01100000
C        4.48558175       3.76342731      -2.15554628       0.64100914       0.83214861       0.09756352      12.01100000
C        2.61448325       5.26926120      -1.62263386       0.22943551      -0.68381018       0.50952272      12.01100000
C        4.09432915       4.44756049       0.21506325      -0.17345619      -0.15332974       0.89021830      12.01100000
C        3.12096224       4.60539641       2.62101990      -1.20051150      -0.61550823       0.69195261      12.01100000
C        5.06595006       2.89324078       2.05022615       0.32958354      -1.13472567       0.13997690      12.01100000
C        3.31662215       5.18586803       1.21842856      -0.20278469       0.00427629      -0.34680209      12.01100000
C        5.02361772       3.45418056       0.71555192      -0.70368214      -0.48359444       1.06386157      12.01100000
C        4.13008383       3.60778666       3.01738825       0.81154558       0.21208966       0.48616001      12.01100000
C        5.55644852       1.52888891       2.38925344      -0.64486180      -0.37945322      -0.27758197      12.01100000
C        4.88866249      -0.67674298       3.61864704       0.66289645       0.85421235      -0.74627434      12.01100000
C        6.06373507      -0.71723905       1.21920404       0.30857117       1.44077932       1.43742309      12.01100000
C        5.02055790       0.79103185       3.60103384       0.27748360       0.77469756      -0.87130896      12.01100000
C        6.13844612       0.71559375       1.27101160      -0.15621565      -1.11210296      -0.28530276      12.01100000
C        5.42852767      -1.33499112       2.48077012      -1.37965742      -0.57159602       0.58700607      12.01100000
O        0.21222443       0.33990858      -0.15768888      -0.84835307      -0.46049763      -1.13795732      15.99900000
H       -0.63485709       0.52430842       0.26843387       0.16614349       0.14725240      -0.04683005       1.00800000
H        0.76973887      -0.09878461       0.60108237       0.26053181       0.01468170      -0.36294555       1.00800000
