243
Properties=species:S:1:pos:R:3:momenta:R:3:masses:R:1 C60-Ih=T time_fs=96000.0 step=96000 energy=-2134.3074896569997 free_energy=-2134.3074896569997 stress="0.0 0.0 0.0 0.0 0.0 0.0 0.0 0.0 0.0" pbc="F F F"
C       -1.86297014       2.53655821       1.62165516      -1.51751674       0.01595403       0.44290996      12.01100000
C       -2.71604192       1.34857185       1.94323827       0.67189130       0.76224338      -0.02451469      12.01100000
C       -1.73866528       3.02388839       0.42190817      -0.91523413      -1.46671239      -1.31802712      12.01100000
C       -3.22498540       0.76789562       0.79839513      -0.26196571       0.07315714      -0.43043809      12.01100000
C       -3.45520603      -0.60464065       0.71558026       2.16072654       0.10922112       0.88773283      12.01100000
C       -2.04748606       0.57241403       2.80692910      -0.04336960      -0.36265460       0.66561003      12.01100000
C       -2.10252975      -0.76453646       2.76790497       0.37462116      -0.46831846       0.14271628      12.01100000
C       -2.92954680      -1.39497246       1.75819560      -0.14499165       0.11688443       1.66461774      12.01100000
C        0.68577569       3.24113530       0.69683799      -0.65377424       0.27003368      -1.47122719      12.01100000
C        0.53451271       2.74269670       2.01263415      -0.77935173      -1.86364192      -0.15406390      12.01100000
C       -0.39334842       3.38981259      -0.05540846       0.54217260       1.06923460      -0.13013739      12.01100000
C       -0.68200340       2.42759720       2.45859398      -0.31460266       0.03756614       0.47355978      12.01100000
C       -0.85791039       1.12705392       3.18546221      -0.10783287      -0.82696407      -0.68700379      12.01100000
C        1.72740205       2.03950904       2.36919390      -0.94879950      -1.41640786      -0.33272291      12.01100000
C        1.52106645       0.86215199       2.99238218      -0.03488775      -0.69502511       0.23231661      12.01100000
C        0.28661577       0.42001818       3.49322397       0.85070412      -0.10603626       0.14238239      12.01100000
C        0.92100868       2.62782804      -2.04037146       0.06852721       0.85709555       0.74236476      12.01100000
C        2.07622894       2.41259346      -1.22507017      -0.78231545      -0.55310580      -0.05226861      12.01100000
C       -0.29168693       2.98374479      -1.43468620      -0.98350803      -0.78973321       1.84419553      12.01100000
C        1.92432049       2.78392711       0.16328017       0.69177666      -0.08566175      -0.61885843      12.01100000
C        2.59229512       2.04969606       1.17921028      -0.46026157      -0.26822151       0.17129185      12.01100000
C        2.72856517       1.27153238      -1.66475950      -0.55194266       0.07315744       0.30623827      12.01100000
C        3.36877334       0.56793022      -0.68867544       1.06028229      -0.59420677       0.42431166      12.01100000
C        3.20628566       0.90125315       0.75813487      -1.09598343       0.47756847      -1.13286989      12.01100000
C       -1.59015525       1.36048979      -2.76549877       1.21890205       0.24585849       0.27882027      12.01100000
C       -0.25157687       0.89077917      -3.40246728      -0.54945086      -0.29200873       1.08614366      12.01100000
C       -1.52039396       2.30760746      -1.81320316      -0.61552849       1.03443059       0.25358465      12.01100000
C        0.87764446       1.47823073      -2.91709363      -0.05910710      -0.19269251       0.85541661      12.01100000
C        2.07670131       0.62678798      -2.83085794       1.08344454      -0.37036142      -0.32358603      12.01100000
C       -0.43331180      -0.61629461      -3.53417063       0.39357528      -0.24012615       0.69066728      12.01100000
C        0.66391542      -1.36332946      -3.16993966      -0.57263751       1.09280783      -0.51429448      12.01100000
C        1.91454923      -0.73693704      -2.81011903      -0.05548080       0.23637462       0.17144356      12.01100000
C       -3.18131488       1.27017536      -0.57090882      -0.48164135       0.59538293      -0.91962718      12.01100000
C       -3.18720644       0.14295677      -1.45321228       1.11434735       0.83884794       0.17479759      12.01100000
C       -2.36179521       2.33283285      -0.70472295       0.10010826      -0.71945320      -1.26542511      12.01100000
C       -2.34129648       0.21293597      -2.47431896       1.26658772      -0.47916166       0.02312250      12.01100000
C       -1.67540442      -0.91712571      -2.95203479       0.65681343       0.36776220       0.87056490      12.01100000
C       -3.33842468      -1.01214565      -0.64478751       0.28224558       0.60916476       0.10663295      12.01100000
C       -2.61666897      -2.11160650      -1.02100257      -0.53083186       0.93588900      -0.23974068      12.01100000
C       -1.82089875      -2.05962490      -2.19744214      -0.23116258       1.09400721      -0.37345866      12.01100000
C        1.69195854      -2.53532195      -1.47477856       0.69048875      -0.23014630      -0.31637427      12.01100000
C        0.64079436      -2.54962915      -2.41434506       0.99335429       0.49245475       1.04348337      12.01100000
C       -0.69234610      -2.81466776      -1.86685297       1.45516284       1.01857300       0.11750174      12.01100000
C        1.64268864      -3.06206271      -0.17263035       0.83658846       0.89473021      -0.91104632      12.01100000
C        3.10299139      -1.36627219       0.64502323       0.02647728       1.48628499      -0.18191428      12.01100000
C        3.22143110      -0.82029094      -0.69285843      -0.73479726      -0.70867858      -1.03965079      12.01100000
C        2.56845619      -1.45598567      -1.71366981       0.36909069      -0.37499831      -0.03532199      12.01100000
C        2.33166935      -2.42092688       0.89126308       0.55092163       0.74034041      -0.68396795      12.01100000
C        1.43378672      -1.46684170       2.92994993       0.13518460      -0.36781824       0.79940317      12.01100000
C        2.25330648      -0.26552611       2.66445917       1.01224109      -0.98871013      -0.10400802      12.01100000
C        3.07248819      -0.22547310       1.55439993       0.42457653       0.18402361      -0.51203063      12.01100000
C        1.42778461      -2.53677475       2.07045563       0.99534998      -0.31259680      -0.06294669      12.01100000
C       -0.96778724      -2.71496356       2.20373893      -0.29493715      -0.38634898       0.92010977      12.01100000
C       -0.96035989      -1.59298642       3.05619379      -0.64715524       0.55807490      -0.56397573      12.01100000
C        0.18444962      -0.99270587       3.44385551       0.19362894       0.37658004       0.13878512      12.01100000
C        0.20380828      -3.21761252       1.69992086      -0.14163346       1.89272693      -0.48417045      12.01100000
C       -0.77103884      -3.36944242      -0.58679174      -0.69723735       0.05799700      -0.75280102      12.01100000
C       -2.07653904      -2.95248832      -0.00123136      -1.36041735       0.69860836       0.33375880      12.01100000
C       -2.18088549      -2.56005717       1.28155331       0.28278103      -0.23555489       0.11886159      12.01100000
C        0.31921725      -3.48991470       0.27503455      -0.12900583       0.21596754      -1.09157498      12.01100000
C       -6.13365238      -0.75001461       1.53719224      -0.40658395      -1.57526558      -0.14686503      12.01100000
C       -6.16466752      -1.45151092       0.26065286       0.01210539       0.31521173      -0.14047839      12.01100000
C       -5.69018479      -2.74309931       0.46631110       0.53323190       0.01331288       0.41399626      12.01100000
C       -5.25110132      -2.87093024       1.85619018       1.07905288       0.25025313       1.25595352      12.01100000
C       -5.58106696      -1.60052121       2.56110967      -0.18245161      -0.48218016      -0.40876461      12.01100000
C       -3.23251344       4.19394580       3.77982102      -0.34727431       0.87295778      -0.33281101      12.01100000
C       -4.12611051       3.05054438       3.84377430      -0.54164783      -1.25343350       0.69502499      12.01100000
C       -3.57122720       2.18972268       4.86852696       0.45819472      -1.03913993      -0.13352175      12.01100000
C       -2.21530818       2.69074868       5.17961625      -0.69602989      -0.20397968      -0.58011286      12.01100000
C       -2.02921778       4.04246780       4.71770852      -0.18048904       0.69690066      -0.42783082      12.01100000
C       -4.46850694       3.34464313      -3.13588197      -0.72889308       0.84594049      -0.10977058      12.01100000
C       -5.38116464       2.71404279      -2.21774408      -0.39737436       0.26357218      -0.20624045      12.01100000
C       -5.29735297       3.36685785      -0.92499078       0.28895798       0.11034881       1.23527600      12.01100000
C       -4.32317557       4.36540644      -1.01447001       0.42343628      -0.48284185       0.15339097      12.01100000
C       -3.71721490       4.32990876      -2.36801094      -0.21430908      -0.60810532      -0.47067681      12.01100000
C       -2.77231142      -3.11368355      -4.83639228      -0.90522812       0.79348341      -0.26856990      12.01100000
C       -3.95441348      -2.89907108      -4.06281241      -0.76974286       0.21746270       0.84520055      12.01100000
C       -4.44664303      -1.51480593      -4.29275691      -0.31133776      -0.48561528      -0.40790600      12.01100000
C       -3.59023440      -0.95995289      -5.12725509       0.49693864      -0.00541729      -0.43714966      12.01100000
C       -2.58622009      -1.87222064      -5.53494413       0.13415701       0.25288107      -0.18623367      12.01100000
C       -0.30895364      -6.28687241       0.82106439       1.14226108       0.79994091      -0.20017047      12.01100000
C       -1.71149176      -5.98728692       0.81958396      -0.44292876      -0.62791580      -1.07207160      12.01100000
C       -2.12925747      -5.89255432      -0.55932298       0.07435515      -0.21863360      -0.44473181      12.01100000
C       -0.92145412      -6.09143635      -1.43775402       0.85934737       1.85740501      -0.64044223      12.01100000
C        0.18097738      -6.39585635      -0.57674846       0.93555568       0.44750541      -1.69896407      12.01100000
C       -0.59488301      -1.83237409       6.04371582      -0.13970922      -0.31117347      -0.21704934      12.01100000
C       -1.82801128      -2.31188722       5.58580109       0.57782094      -0.34749664       1.49199576      12.01100000
C       -1.49771350      -3.55433286       4.98887135       0.88895016       0.88513824      -0.66715693      12.01100000
C       -0.02464839      -3.80429412       4.96210062      -0.68000191       0.83713106       0.14688520      12.01100000
C        0.49157525      -2.75395899       5.76909218       0.18356179      -0.58417868       0.65687617      12.01100000
C        6.18021876       0.85329108      -1.65318289       0.50943164      -0.40162225      -0.41123912      12.01100000
C        5.67969820       1.85669353      -2.60583971      -0.85106925       0.10339941      -0.41231763      12.01100000
C        5.40489539       3.06442971      -2.05071507       0.00589456      -1.78861022      -0.53982198      12.01100000
C        5.75515692       2.88876312      -0.61669237      -0.47845489      -0.31540830      -0.52789808      12.01100000
C        6.20964328       1.54735141      -0.30533788       0.22231988      -0.05313046      -0.75430731      12.01100000
C        2.08129860      -3.94342716      -4.55354072       0.52605193       1.17919318       0.28149619      12.01100000
C        2.25149276      -2.66759213      -5.26562372       0.30018112      -0.29221430       1.13250063      12.01100000
C        3.53627722      -1.96900023      -4.85150976      -0.79019216       0.52188334      -0.45831856      12.01100000
C        4.19834124      -2.98173297      -3.89144793       0.35450713      -1.39704959       0.29122468      12.01100000
C        3.20932211      -4.07495604      -3.66113478       0.21656724      -0.40886788       1.34306451      12.01100000
C       -0.44257016       2.76594854      -5.75893071      -0.41683854      -0.57702516      -1.61889571      12.01100000
C        0.16808637       3.85409148      -5.16522994      -0.37944835      -0.10396519      -0.80416836      12.01100000
C        1.58963322       3.62388617      -5.05597281      -0.82245248       0.92597575       0.23133697      12.01100000
C        1.85795350       2.37139905      -5.64720895      -0.50510880       1.36882276      -1.66622044      12.01100000
C        0.59629119       1.77276002      -6.01988337       0.06309371       0.71964511       0.64350931      12.01100000
C       -0.11177339       6.28743304       0.53984246      -0.09115617       0.33032247       1.04399289      12.01100000
C        0.95162090       6.10781301       1.44089015       1.01414666       0.02056357       0.76478811      12.01100000
C        2.14947291       5.93876482       0.55201631      -0.72429338      -0.15823419      -0.07107481      12.01100000
C        1.79074806       6.09297781      -0.79561789       0.27245402       0.35323965       0.12244847      12.01100000
C        0.39420724       6.52081885      -0.84831021       0.92221122       0.43712992      -0.47361608      12.01100000
C        2.58158842       1.84493845       5.52510887       0.06480828      -0.57977243       0.84728913      12.01100000
C        3.66753923       0.96226300       5.19172140       0.45742532       0.41276097       0.94496065      12.01100000
C        4.43428538       1.52111589       4.18339447       1.55751849      -0.23644366      -0.20895281      12.01100000
C        3.99656788       2.99968407       4.04729986       1.09294009      -1.28624312       0.14013674      12.01100000
C        2.82537742       3.12295059       4.80624446       0.99075693       0.66487393       0.65521123      12.01100000
C        3.89228674      -4.32354748       2.26994592       0.32937331       0.13675888       0.89510020      12.01100000
C        4.45369749      -4.47877318       0.98288641      -0.33152346       0.40249319       0.89190861      12.01100000
C        5.23249487      -3.35571959       0.89807304       1.01665955      -0.72425305      -0.88022939      12.01100000
C        5.45687436      -2.69121522       2.12236473      -0.90675823      -0.48931030       0.56829999      12.01100000
C        4.56721577      -3.40449148       3.07204003      -0.48785061      -0.12987032      -0.85343577      12.01100000
C       -6.02401673       1.35816999       0.33002853       0.38085222       0.63954451      -0.61755732      12.01100000
C       -5.04421736       3.37952759       1.50586358       0.74068588      -0.79929696       0.64244536      12.01100000
C       -5.27002073       1.17856840       2.75316362      -0.94402067      -0.16097960       1.31798118      12.01100000
C       -5.63694737       2.69989004       0.30243417      -0.75298726       0.89412837      -0.56767998      12.01100000
C       -6.00927864       0.67156858       1.60544112       0.39077797      -0.74793055       0.10434711      12.01100000
C       -4.93678884       2.58435081       2.73297002      -0.11224516       0.40037021      -0.02159579      12.01100000
C       -6.12637410       0.69902304      -0.97857285       0.67162959       0.30539969       1.43678386      12.01100000
C       -5.14741915       0.53360783      -3.29987230       0.23712996       1.16954885       0.59437404      12.01100000
C       -5.79815559      -1.63291129      -2.12879027      -0.72392714      -0.02131078       0.62821940      12.01100000
C       -5.79989995       1.31929837      -2.27749089      -0.62904150       0.00378031      -0.39374276      12.01100000
C       -6.14269631      -0.74426609      -0.97128655       0.46244442       0.34053650       0.52332208      12.01100000
C       -5.25929575      -0.83419989      -3.35934861       0.78028358      -0.99128265      -1.19708921      12.01100000
C       -5.13810412      -2.96622769      -1.84420825       0.13395918      -0.42386388      -0.25014321      12.01100000
C       -3.18429821      -4.55496051      -2.40506079      -0.53930760       0.59406406       0.08990031      12.01100000
C       -4.11085454      -4.53010505       0.05110666      -0.02517820       0.58358665       0.33920714      12.01100000
C       -4.18202625      -3.55307261      -2.81066571      -1.46103425       0.48543444       0.49832146      12.01100000
C       -5.04684347      -3.52514449      -0.49534067      -0.73953611      -0.40174184       0.90373825      12.01100000
C       -3.27783804      -5.09082612      -1.07095307      -0.15606888       1.40665987      -0.51451226      12.01100000
C       -3.68900329      -4.76494998       1.51033652       0.64083490      -0.38423224       0.83624662      12.01100000
C       -1.64426406      -5.16787950       3.03380510      -0.22717561      -0.04399865       0.33631833      12.01100000
C       -3.57878556      -3.42733817       3.59565713       1.36478671       0.54424233       0.05498056      12.01100000
C       -2.50756234      -5.42390295       1.84916626      -0.33173277       0.84399180       0.73712879      12.01100000
C       -4.26610249      -3.72119280       2.39478122      -1.41451217       0.59306602      -0.68356992      12.01100000
C       -2.33578271      -4.21946872       3.99047862      -0.68305555       0.41336959      -0.18527447      12.01100000
C       -4.72619601       0.30066006       3.82324127      -0.70156613      -1.05702761       0.44961168      12.01100000
C       -2.82530896      -0.10731586       5.40369706      -1.46894923      -0.13071549       0.40532992      12.01100000
C       -3.78011614      -2.06628635       4.23457705       1.34405114       0.61566774      -0.45587352      12.01100000
C       -3.77084085       0.79841811       4.81907900      -0.67100760      -0.89552194      -1.48031333      12.01100000
C       -4.68452544      -1.11043551       3.53501586       0.93057314       0.79464104      -0.17456604      12.01100000
C       -2.92937297      -1.52819700       5.21408724      -1.17794142      -0.04915022      -2.76245499      12.01100000
C       -3.92665492       4.45636396       1.37296293      -0.12325317       0.08072164      -0.55150658      12.01100000
C       -2.35732471       5.53859474      -0.30527426       0.19203281      -0.82510167      -0.35268415      12.01100000
C       -1.75190041       5.46419078       2.21526637      -0.35403844       0.16381166      -0.16320938      12.01100000
C       -3.55376536       4.77953058       0.01559207       0.03608585       0.86242362      -0.47741271      12.01100000
C       -3.06980570       4.90041998       2.46928776      -0.35596171      -0.32792965      -1.17366821      12.01100000
C       -1.38774737       5.89639229       0.81536057       1.01993691      -0.60228861      -0.78028055      12.01100000
C        0.13831261       2.37105707       5.58603963      -0.24576211      -0.50574857       0.87182315      12.01100000
C        0.96451718       0.02293008       6.02513548      -0.32290571       0.32148925      -0.47144131      12.01100000
C       -1.58959586       0.45650472       5.94513730      -0.00380131      -0.57023445      -0.85018308      12.01100000
C        1.23989902       1.43335874       5.82278610      -0.17113180      -0.67082864       0.38937518      12.01100000
C       -1.17438377       1.84942594       5.72110613       0.14163283      -0.19094843       1.86621258      12.01100000
C       -0.48593695      -0.42990150       6.19681949       0.03237866      -0.10081637      -0.19855322      12.01100000
C       -0.61731705       5.36882817       3.17480718      -0.69348385       0.18970815       0.17568124      12.01100000
C        2.01015239       4.92242161       3.28436227      -0.03400369       0.15710255      -0.00873615      12.01100000
C        0.38016942       3.75390017       5.00832935      -0.11680979      -0.26894807      -0.21905106      12.01100000
C        0.79527026       5.56691266       2.71970467      -0.72040298      -0.24892636      -0.63649932      12.01100000
C       -0.70957496       4.57223351       4.47435482       0.02331970       0.56797122       0.92250861      12.01100000
C        1.76013545       3.95532507       4.41472394      -0.27706092      -0.21521846       0.33351861      12.01100000
C       -4.19738156       1.28150640      -4.33809321       0.05523997      -0.21124600       0.24978814      12.01100000
C       -2.24111577       1.00786376      -5.81275213       0.96881234       0.25903132      -1.50011125      12.01100000
C       -2.64813334       3.25648219      -4.67026225      -0.71539037      -0.35040170      -0.39559009      12.01100000
C       -3.32518992       0.44462527      -5.12500582       0.45765967      -1.22915834      -1.65413678      12.01100000
C       -3.82180728       2.64706932      -4.15551581      -0.64251786      -0.04223694      -1.09584366      12.01100000
C       -1.80569725       2.38636029      -5.56075021      -0.40375759      -0.81604786       1.01149467      12.01100000
C       -1.96125583       4.43088244      -3.99793391       0.89384115      -0.37429693       2.51897417      12.01100000
C        0.22599752       5.45384158      -3.19023850      -0.35985159       0.19685466      -0.71612378      12.01100000
C       -1.77869609       5.65402177      -1.70695605       0.49439016      -0.21351191      -1.87097105      12.01100000
C       -0.51375535       4.51906755      -4.13137736      -0.99893040      -0.40374353      -0.21595061      12.01100000
C       -2.48944472       4.89310350      -2.71408278      -0.51958116       0.00926681      -0.50762849      12.01100000
C       -0.40694034       6.07023101      -1.94261418      -0.19484510       0.98515531      -0.84552124      12.01100000
C       -2.00182105      -4.86107244      -3.32533837       1.14464380       0.47605783       0.09309266      12.01100000
C        0.56108509      -5.28269173      -3.20852236       0.32657854      -0.86603671      -1.00833498      12.01100000
C       -0.39936313      -3.70164874      -4.88750645      -0.22899386      -0.53721539       1.45362078      12.01100000
C       -0.80103210      -5.46861271      -2.72928355      -0.48489049      -0.29341533       1.05624199      12.01100000
C       -1.72206282      -3.96093644      -4.40454517      -1.25379916      -0.42726442      -0.05227577      12.01100000
C        0.76103880      -4.46036642      -4.40820908       0.60682888      -0.55758368      -0.38456823      12.01100000
C       -0.16363797      -2.35598169      -5.66857942       0.29706362       0.06364842       0.35894392      12.01100000
C        1.48715077      -0.45124839      -5.93772069      -1.25101830       0.35851317       0.21121338      12.01100000
C       -1.06434983       0.02617915      -6.08125664      -0.70744307       0.95620025       0.14741333      12.01100000
C        1.21615097      -1.91256805      -5.81605801       0.47680900      -0.29545780       0.01485818      12.01100000
C       -1.27071106      -1.43817055      -5.88452324       0.80001658      -0.21758448       0.46987198      12.01100000
C        0.33211318       0.39721671      -6.27095618      -1.11515597       0.02054795      -0.13953550      12.01100000
C       -0.20248802      -5.33486709       3.06063176      -0.47051273       0.98630566       0.28761188      12.01100000
C        2.04228989      -4.36031033       3.88214428       0.59475831      -0.04796193      -0.10644960      12.01100000
C        1.87631506      -5.66558192       1.61982830      -1.30094933       0.77851283      -0.15692416      12.01100000
C        0.60908523      -4.72392752       4.03774593       0.18322739      -0.00972389      -0.74242159      12.01100000
C        0.51210052      -5.83169848       1.92144679       1.10283747      -0.09234862      -0.12399443      12.01100000
C        2.72377019      -4.98256359       2.74977489       0.21894792       0.77838812      -2.15259790      12.01100000
C        1.69129199      -5.47778612      -2.28566446       0.44740780      -0.56325173       0.98245667      12.01100000
C        3.97508727      -4.54285662      -1.44426518       1.46361841      -0.14458755       0.72512689      12.01100000
C        2.43115363      -5.74003967       0.22876104      -0.27673247      -0.31985749      -0.13007583      12.01100000
C        3.04041847      -4.86278825      -2.48879670      -0.56309665       0.85100846      -0.47412294      12.01100000
C        1.44911434      -5.96795296      -0.93147982      -0.28784544      -0.33620460       0.70445632      12.01100000
C        3.66125783      -5.07647210      -0.10379633      -0.33931060      -0.46010367      -0.03961677      12.01100000
C        2.16466191      -0.93315781       5.70063792       0.79552998       0.40671219      -0.41641218      12.01100000
C        4.33465713      -1.33287941       4.40550523       0.07375928      -1.07676404       0.03479600      12.01100000
C        2.59036095      -3.26792250       4.66790617      -0.04981667       0.26409989      -0.78636689      12.01100000
C        3.43323135      -0.48718647       5.22297185       0.28231742       0.40131889      -1.03805245      12.01100000
C        1.82658339      -2.35779844       5.47089900      -1.40018469      -1.05679918       0.73519292      12.01100000
C        3.92938651      -2.68234305       4.10619829       0.15649501      -0.37952927       0.89089158      12.01100000
C        5.33423754      -1.11435869      -2.76813443       0.67256207       0.09978108       0.59150015      12.01100000
C        4.89795761      -3.35506555      -1.51723885      -0.80529437       0.84650503       1.00166407      12.01100000
C        6.02448029      -1.31408925      -0.33757054      -0.69348379      -0.48935053      -0.49999538      12.01100000
C        4.93279319      -2.48888323      -2.74076632      -0.86536466      -0.33233769       0.48922399      12.01100000
C        6.00698710      -0.52088632      -1.59557888       0.07224970      -1.01196678       1.30051084      12.01100000
C        5.48310849      -2.68115552      -0.33896312       0.85027570       0.08999491       0.43468032      12.01100000
C        4.87738136      -0.15251463      -3.90932137      -1.24008393       0.22656180       0.21728300      12.01100000
C        2.80917485       0.21429025      -5.52965204       0.75790267      -1.24286861      -0.10095157      12.01100000
C        3.89699245       2.18132812      -4.31057008       0.65471072       0.24070999      -0.09757824      12.01100000
C        3.80626044      -0.61568061      -4.86134235       0.06230849       0.44736368      -0.46813110      12.01100000
C        4.92543400       1.35327563      -3.71823479       0.73156408       0.40383801       1.60431113      12.01100000
C        2.88938751       1.58718908      -5.19209939      -0.13017112      -0.46713073      -0.28922516      12.01100000
C        3.58298676       3.49804895      -3.66324425      -0.80175900       0.88241462       0.13964591      12.01100000
C        1.75901160       5.15440349      -3.12264486      -0.06151111      -0.18791040      -0.17624603      12.01100000
C        3.71585824       4.67827909      -1.43113599       1.02693010      -1.51201331      -0.07932212      12.01100000
C        2.41407269       4.22713401      -4.08708859       1.22586117      -1.50664398      -0.11856591      12.01100000
C        4.31322157       3.95772004      -2.51149332       0.45120545      -0.12566223       2.32033289      12.01100000
C        2.49733261       5.48228932      -1.86006918       0.23055639      -0.10191659       0.18414810      12.01100000
C        4.07445706       4.54449716       0.00072994       0.55519641      -1.12519558      -0.30572138      12.01100000
C        3.24020963       4.71867474       2.37390670      -0.22887529       0.70966534      -0.36675173      12.01100000
C        5.08720576       2.90884620       1.72585438      -0.80091346      -0.34876713      -0.15103274      12.01100000
C        3.23542670       5.10436110       1.00257939       0.70860280       0.14673369      -0.05744992      12.01100000
C        5.06679945       3.58400379       0.37433188      -0.62929408       0.60545608      -0.18535841      12.01100000
C        4.16772842       3.69367731       2.76715946      -0.48616328      -0.06142190      -0.94498314      12.01100000
C        5.62021716       1.58981010       2.05365690       0.15374064       0.74269436       0.33650868      12.01100000
C        5.30021526      -0.59957399       3.27178011      -1.37582727      -0.71683839      -0.17666699      12.01100000
C        6.18396583      -0.60576760       0.94149738       1.26770771       1.59126113       0.41500960      12.01100000
C        5.25019458       0.87631353       3.27196497      -0.33399489      -0.32239134      -0.02602975      12.01100000
C        6.08177015       0.84010068       0.95825326      -0.51317726      -0.23810253       0.29674567      12.01100000
C        5.74170933      -1.30673119       2.15511326      -0.25279209       0.45880786       0.69312781      12.01100000
O        0.14737855       0.11845100      -0.09511029       0.25225619      -0.22854823       1.12007298      15.99900000
H       -0.80845516      -0.12535259       0.06618724      -0.18583124      -0.16838757      -0.23493094       1.00800000
H        0.59251747      -0.71491499       0.25546906       0.02892438      -0.11360929       0.26282754       1.00800000
