243
Properties=species:S:1:pos:R:3:momenta:R:3:masses:R:1 C60-Ih=T time_fs=99000.0 step=99000 energy=-2135.3445721866815 free_energy=-2135.3445721866815 stress="0.0 0.0 0.0 0.0 0.0 0.0 0.0 0.0 0.0" pbc="F F F"
C       -1.97170890       2.50098175       1.62149545       1.18626649       0.85752733      -1.11079481      12.01100000
C       -2.70283048       1.35345195       1.62765736       1.01246451       0.22933725       0.34545115      12.01100000
C       -1.75779523       3.12889396       0.41745033       0.76332427      -1.04549708      -0.27412866      12.01100000
C       -3.48784685       0.79263617       0.54733476       0.18588957       0.19629035      -0.73699432      12.01100000
C       -3.46383720      -0.59273619       0.38979586      -0.35216326      -1.20554200      -0.95145324      12.01100000
C       -2.14405451       0.43036326       2.61559784       1.79176400       0.74234579      -0.29454702      12.01100000
C       -2.24341875      -1.00462724       2.45425445       0.33750918       0.82316740      -0.16433817      12.01100000
C       -2.94414372      -1.48814340       1.35130914      -0.70860679       1.43853134       0.89093267      12.01100000
C        0.59237829       3.36310280       0.94362695      -0.50787739       1.28602648       0.16723090      12.01100000
C        0.44057209       2.73175001       2.19947539      -0.58340911      -0.31854095       1.17256597      12.01100000
C       -0.38950579       3.47086048       0.05906584       1.64223172      -0.38344525       2.23662752      12.01100000
C       -0.82940602       2.27265898       2.54609672      -0.38553670       2.07447251       0.00736278      12.01100000
C       -0.97813769       1.03130444       3.15123846       0.10530111       0.42689294      -0.00912596      12.01100000
C        1.52715932       1.87497689       2.47788613      -0.22590687       0.52068888       1.47624658      12.01100000
C        1.40357398       0.69986774       3.12847282       0.63645010       0.58302298      -0.45774885      12.01100000
C        0.09161931       0.22944806       3.46225764      -0.63950449       0.54218694       0.51858140      12.01100000
C        1.05916182       2.80438174      -1.86354748       0.44706895      -0.91727033       0.60609634      12.01100000
C        2.18766904       2.67501294      -0.90316820      -1.32046778       0.31951361      -1.02091912      12.01100000
C       -0.19844701       3.16942551      -1.35444289       1.39094445      -0.26188641       0.13202085      12.01100000
C        1.87197703       2.88035901       0.45536278       0.09938000       0.11616190       1.57590428      12.01100000
C        2.36399924       1.97811093       1.39178728      -0.61672796      -0.19941838      -0.33219892      12.01100000
C        2.93779210       1.52632578      -1.31794099      -0.74287677       0.73963760      -0.17752113      12.01100000
C        3.39744585       0.70649605      -0.30857207       0.39594732      -1.22988421      -1.46999559      12.01100000
C        3.16264853       0.96615847       1.06331411       0.61862240      -0.71500633      -1.00711828      12.01100000
C       -1.40202700       1.69858732      -2.90937920       0.47537616       0.78788019       0.59984570      12.01100000
C       -0.10428892       1.26220044      -3.30248470       0.45241206       0.43257694      -0.62985481      12.01100000
C       -1.36028227       2.59028842      -1.90078883       0.98799190       0.30109488      -0.21102592      12.01100000
C        1.11727948       1.81422819      -2.88985505       0.06166360      -0.08878221      -1.24836704      12.01100000
C        2.35694826       1.07978501      -2.51427854      -0.84562694      -0.97483077       0.23968267      12.01100000
C       -0.16961830      -0.14186484      -3.43122158       0.87867448       0.54205822      -0.94779414      12.01100000
C        0.93118883      -0.85630120      -3.12741908       0.79626562       0.39123397      -0.21773683      12.01100000
C        2.26918264      -0.33237457      -2.70794100      -0.51792364       0.21118511       0.44148524      12.01100000
C       -3.17689575       1.44105105      -0.66815835      -0.44430956      -0.22050827       0.41694142      12.01100000
C       -3.01656849       0.39140159      -1.67392189       0.50743265      -0.30852820      -0.31913664      12.01100000
C       -2.33994492       2.50198409      -0.78306479       0.34971713      -0.77385968      -0.33947115      12.01100000
C       -2.17745314       0.53618880      -2.79367447      -0.21908696       0.41568009      -0.27320921      12.01100000
C       -1.46484475      -0.59524609      -3.12753516       1.28838719      -1.36228557       1.22586642      12.01100000
C       -3.16442198      -0.75391299      -0.98679364       0.14951571      -0.98724861       0.07779264      12.01100000
C       -2.47322737      -1.92409732      -1.45116145       0.30175678      -0.98822865       0.85242136      12.01100000
C       -1.58659561      -1.81439814      -2.50827914       0.84554741      -0.51708666      -0.65384318      12.01100000
C        1.88744504      -2.37367827      -1.69243126       0.53342516       0.60676601      -1.28799049      12.01100000
C        0.80612821      -2.15175649      -2.57388066      -1.00059837      -1.12675128       0.01125004      12.01100000
C       -0.45443887      -2.63377227      -2.24404155       1.07362263       0.28284204      -1.02912790      12.01100000
C        1.66433371      -3.00934525      -0.55202050      -0.26850436       0.38709322      -1.05614903      12.01100000
C        3.10097365      -1.35343232       0.64628499      -0.03228697      -0.17413363      -0.45069439      12.01100000
C        3.31633295      -0.73614537      -0.59732559       0.46603382      -0.15386854      -0.10817376      12.01100000
C        2.78522471      -1.20284941      -1.75211077      -0.42919541       0.07653868      -0.79958176      12.01100000
C        2.29282468      -2.47627142       0.67365829      -0.28735141      -0.63157145       1.42531885      12.01100000
C        1.28008641      -1.65497925       2.73991057      -0.26504414       0.08209254       0.47762796      12.01100000
C        2.11105845      -0.50974677       2.69730813       0.17119017      -0.59017318      -0.14127727      12.01100000
C        3.00785344      -0.33188532       1.66564924       0.05971798      -0.60837245       0.39987416      12.01100000
C        1.38470415      -2.52398209       1.79046874       0.02675813       0.86308524       1.29888187      12.01100000
C       -1.04285613      -2.83318740       1.76525930       0.41241304       0.61979976      -0.14625067      12.01100000
C       -1.18066802      -1.91168310       2.81833566       0.49465728       0.10580011       0.16344774      12.01100000
C       -0.03098166      -1.21784460       3.28830687       0.73298929       1.15072425      -0.10371121      12.01100000
C        0.14944268      -3.19550318       1.31548017      -0.29123619      -0.89927713      -0.38646293      12.01100000
C       -0.70292164      -3.33296103      -1.01113690      -1.30876747      -0.42474190       1.12270438      12.01100000
C       -1.97598908      -2.87830320      -0.55794464       1.34215077       0.13271582      -0.12606112      12.01100000
C       -2.15689347      -2.68463998       0.82407758       1.66554733      -0.14720175       0.10876431      12.01100000
C        0.32167893      -3.52980249      -0.12878055      -0.62231109      -0.74920190      -0.86057537      12.01100000
C       -6.28415820      -0.53350099       1.09335554       0.07939798       0.28226338       1.01785150      12.01100000
C       -6.32537336      -1.23507315      -0.20262674      -0.93144284       0.27578614       0.62715151      12.01100000
C       -5.77619827      -2.54142465       0.02465873      -0.78291192      -0.60661108      -1.51402973      12.01100000
C       -5.47391950      -2.58913915       1.42602867      -0.11616801      -1.28936295      -0.48000707      12.01100000
C       -5.73939625      -1.38648661       1.98231978       0.07035916       0.45930659       0.23387793      12.01100000
C       -3.27137974       4.25248032       3.41847300       0.92406798       1.06005893      -1.41402123      12.01100000
C       -4.24800343       3.21567438       3.49421778      -1.05678508      -0.10069293       0.08916538      12.01100000
C       -3.72591825       2.33198499       4.54714395       0.22482851      -0.38879510       0.25915774      12.01100000
C       -2.60493712       2.86474547       5.19041344      -0.91487696      -0.95833538      -0.25393775      12.01100000
C       -2.24735052       4.11861973       4.45718065      -0.28916238      -0.21497652       0.49081205      12.01100000
C       -4.11139164       3.51795794      -3.38735713      -0.39905600       1.02881806       0.44939021      12.01100000
C       -4.99410169       2.87381308      -2.56212403      -0.10209064      -0.00272617      -0.89220854      12.01100000
C       -4.98738030       3.46821298      -1.26858832       0.71379193      -1.56276445       0.16973940      12.01100000
C       -4.09000257       4.61103649      -1.29745072      -0.74900454       1.03137581      -0.31193391      12.01100000
C       -3.44467193       4.63842460      -2.65573191      -0.80552161      -1.02592014       0.32141292      12.01100000
C       -2.51092819      -3.13781719      -5.04222191       0.39273889       0.79781088       0.40889520      12.01100000
C       -3.69519191      -2.84696191      -4.34629406       0.92096796      -0.47237947       0.38990879      12.01100000
C       -4.04761419      -1.46133809      -4.60016243      -0.42951388       0.17351969      -0.69400288      12.01100000
C       -3.09904501      -0.91425774      -5.44427086       0.73780646      -1.14888086      -0.02496989      12.01100000
C       -2.11708390      -1.95019761      -5.71506952       0.73809515       0.38203183      -0.05307269      12.01100000
C       -0.70658120      -6.23751027       0.82894287       0.56849271       0.54318037       0.61947562      12.01100000
C       -2.16127608      -5.99526690       0.62279258       0.21021113      -1.36721954       0.61586862      12.01100000
C       -2.36269088      -5.91359781      -0.77338767       0.61501430       0.23965778       0.68300576      12.01100000
C       -1.15435250      -6.14188060      -1.50073121       1.02120892      -0.39845788      -0.36582388      12.01100000
C       -0.12352775      -6.40256665      -0.52401694       0.05028485      -0.19186032      -0.19932818      12.01100000
C       -1.22314764      -1.73955294       5.86974660       0.51632996      -0.52649760       0.01351250      12.01100000
C       -2.41478098      -2.24436635       5.40687215      -0.80560809       1.12257452      -0.80645474      12.01100000
C       -2.11864875      -3.58077514       4.77956168      -0.82878060      -0.17645103       0.71800795      12.01100000
C       -0.77502822      -3.74820679       4.93448858      -1.04954651       0.46835728      -0.12210269      12.01100000
C       -0.15582747      -2.72975452       5.75745067       0.33840297      -0.73777933       0.50881150      12.01100000
C        6.17343738       0.45310426      -1.09208971      -0.56176414       0.53195619       0.60195648      12.01100000
C        5.78061345       1.32986925      -2.06762522       0.27620248      -0.13082753       0.63530797      12.01100000
C        5.56061645       2.63196203      -1.47074676       1.26789212      -0.16608360      -0.03149219      12.01100000
C        5.92043455       2.57988502      -0.08958245      -0.02092422      -0.35434397       0.79436820      12.01100000
C        6.21914166       1.17686596       0.18364751       0.17485177       0.92259868       0.62559126      12.01100000
C        2.21055794      -4.07143731      -4.40502431      -0.97726613       0.10727206      -0.78189572      12.01100000
C        2.57838466      -2.89316596      -5.18214956       0.32965192      -0.92161460       1.90100566      12.01100000
C        3.89676547      -2.36804677      -4.64258205      -0.06961631      -0.75632746      -0.69380125      12.01100000
C        4.14711205      -3.16948867      -3.47668616       0.09509687      -2.03525189       0.14004762      12.01100000
C        3.25125557      -4.22631087      -3.36295894       0.80675888       0.95947454      -0.69940854      12.01100000
C        0.18868937       2.74200324      -5.72047109       0.18976571      -0.29148985      -0.46869475      12.01100000
C        0.82428730       3.77327217      -4.95348291       0.56493167      -0.24866097      -0.29562855      12.01100000
C        2.23602740       3.49330337      -4.78499710       0.56386912       0.41163111       0.23293086      12.01100000
C        2.49049109       2.23369663      -5.43421276      -1.30939934       0.36412090      -0.55304841      12.01100000
C        1.17347514       1.74146413      -6.00419183      -0.48951644      -0.23879422       0.73336901      12.01100000
C        0.02552076       6.33607759       0.56802062      -0.14398212       0.21844403      -1.06412726      12.01100000
C        1.07614274       6.18981674       1.57066361      -0.46318144       1.84539304       0.91401625      12.01100000
C        2.37729034       6.06553787       0.85809674      -0.39160571      -0.11828906      -0.22354642      12.01100000
C        2.15387563       6.05377078      -0.58911756       0.11667701       0.34414875      -0.28190420      12.01100000
C        0.71556546       6.25902015      -0.73802093       0.59778107      -0.59527644       0.31259586      12.01100000
C        2.10675462       1.79070681       5.75969891       0.56628462       0.52753238       0.00562332      12.01100000
C        3.22957378       0.87401902       5.50720065       0.65356174       0.06096294       0.78667266      12.01100000
C        4.13330447       1.41843910       4.56672705      -0.93800822       0.60421106      -0.80332974      12.01100000
C        3.69135253       2.72707918       4.33712533       0.89938226      -0.84344225       0.30349216      12.01100000
C        2.48663121       3.00350259       5.05312462      -0.46407275       0.82766402       0.37707968      12.01100000
C        3.40213475      -4.53072392       2.68067098       0.09445503       0.56502080      -0.14695521      12.01100000
C        4.01420608      -4.62550669       1.42684323       0.15918603       0.21251483      -0.66608311      12.01100000
C        5.00043060      -3.55847050       1.34276322       0.13818145       0.27454427      -0.22361979      12.01100000
C        4.99107575      -2.85520207       2.59562829       0.81674472       0.32007516      -0.50966285      12.01100000
C        3.93617460      -3.41491583       3.39450467      -0.60568838      -0.33952592      -1.26074132      12.01100000
C       -5.91481463       1.44711963      -0.15942217       0.62690225      -0.72449215       0.98688026      12.01100000
C       -4.71218784       3.51209189       1.15911442       0.00507995      -0.51182348       0.46383802      12.01100000
C       -5.48922011       1.35544052       2.41669796      -0.00763812      -0.00841785       0.92576021      12.01100000
C       -5.35253690       2.90557319      -0.04808187      -0.28674576      -0.20480999       1.11301669      12.01100000
C       -6.04267749       0.81389870       1.19486441      -0.12724333       0.94746292       0.21875506      12.01100000
C       -4.96059602       2.75062256       2.40195170       1.49631923      -0.56309973      -0.21694642      12.01100000
C       -5.88112008       0.78545106      -1.48507106       1.16715378      -1.04858945       0.10365611      12.01100000
C       -4.80067391       0.66982058      -3.72069711       0.14169804       0.40849994      -0.65913230      12.01100000
C       -5.50753072      -1.42081215      -2.56059540      -0.16514123      -0.04198476      -0.36319675      12.01100000
C       -5.37985039       1.41445464      -2.67474349      -1.06419271       0.03715824      -0.50196361      12.01100000
C       -6.07786804      -0.66347917      -1.53307868      -0.93702800       0.85115388      -0.54964453      12.01100000
C       -4.85489242      -0.78102887      -3.67128963       1.06984547      -0.52518712       0.37203518      12.01100000
C       -5.02619052      -2.78499519      -2.33033001      -0.19492884       0.37237017       0.39749023      12.01100000
C       -3.17984942      -4.67606351      -2.65844805       0.49310360       1.46025722      -0.47738536      12.01100000
C       -4.19846805      -4.25938332      -0.37050478       0.28690915      -0.27504055      -0.29622736      12.01100000
C       -4.03984342      -3.50414139      -3.16255389      -0.47109509      -0.18992438       0.08089928      12.01100000
C       -5.09885283      -3.28275788      -0.97259263       1.06172889       0.18958374       1.55658787      12.01100000
C       -3.37635745      -5.11460593      -1.28437156      -0.73293812      -0.14128564       0.70028891      12.01100000
C       -4.00885802      -4.51023058       1.09468280      -0.34707672       0.57787580       0.00466265      12.01100000
C       -2.19273080      -4.96030455       2.82685444       1.15700649       0.66354730       0.67284834      12.01100000
C       -3.99116098      -3.24761690       3.26115211      -0.34360895       0.50886135      -0.16045296      12.01100000
C       -2.90273578      -5.27668185       1.59645720       0.06848954       0.19920520      -1.34052447      12.01100000
C       -4.57062194      -3.56360108       1.93682416      -0.59686713       0.21408097       0.34440307      12.01100000
C       -2.88560417      -4.11848127       3.72270152      -0.33633818       0.49884356       0.45476782      12.01100000
C       -5.07076785       0.44825820       3.46358285      -1.17290932      -1.14601605       0.02121417      12.01100000
C       -3.18896634      -0.01446223       5.15055125      -0.51639079       0.65909412      -1.28917227      12.01100000
C       -4.20167551      -1.96124495       3.83151287      -0.72211911      -0.35150519      -0.32899169      12.01100000
C       -4.13015719       0.96291873       4.49958072      -0.81113598       0.57296233       1.56677354      12.01100000
C       -5.07903557      -0.95065056       3.23679498      -0.43708739       0.16949800      -0.00701790      12.01100000
C       -3.39506184      -1.40679009       4.89622720       0.14997812      -1.22320731      -1.22654973      12.01100000
C       -3.81737718       4.62303144       1.13329502       0.98251740       1.60466859      -1.17882375      12.01100000
C       -2.15066777       5.74603006      -0.42527309       0.53548417       0.00259716      -0.74500433      12.01100000
C       -1.64819110       5.55062828       2.09664594      -0.19916725       0.23192507       0.00566766      12.01100000
C       -3.44581019       5.14610603      -0.12643387       0.36279108      -0.38116360      -1.19401278      12.01100000
C       -3.00232925       4.96634341       2.27503592       0.31407907       0.03098139       0.13145045      12.01100000
C       -1.27808489       5.98877280       0.68546253       0.67954933       0.96753945      -0.46830800      12.01100000
C       -0.21563278       2.42047710       5.61187391       1.46796051       0.33512955       0.77745184      12.01100000
C        0.46006449      -0.05219435       6.13405145       0.61952838       0.06569082      -0.90138531      12.01100000
C       -1.97920705       0.47951661       5.74451766       0.55538165      -0.78209588      -0.65409046      12.01100000
C        0.77019934       1.39414554       5.92445063      -1.53824515       0.57385912       0.28562765      12.01100000
C       -1.66355858       1.96771415       5.73807071       0.42358506      -0.64494480       0.27686818      12.01100000
C       -0.90475912      -0.38994344       6.07275504      -1.11519120       0.00359350      -0.25070113      12.01100000
C       -0.58908876       5.23887067       3.02743024      -0.17550935      -0.39461054      -0.67089013      12.01100000
C        1.92221457       4.69651660       3.36165024      -1.17554745      -1.40807153       0.71606946      12.01100000
C        0.18029107       3.69377469       4.89794657      -1.55691013       0.12713785       0.21629814      12.01100000
C        0.79061088       5.58918407       2.79109651      -0.12326423       0.33914109       1.27083566      12.01100000
C       -0.86921764       4.41386181       4.20508808      -0.62996598       0.34473264       1.37699291      12.01100000
C        1.55250206       3.93792322       4.54027012      -0.52542335      -1.49182338       0.40611458      12.01100000
C       -3.85676119       1.30945337      -4.65130215      -1.12662952       0.10797554      -0.24935913      12.01100000
C       -1.47535386       1.05116950      -5.84048526       0.76397980      -0.19376906       0.53631128      12.01100000
C       -2.07269672       3.30788866      -4.81904424      -1.12633272      -1.45041440       0.50020622      12.01100000
C       -2.91873412       0.51171426      -5.42279576       0.14774723       1.15753832       0.11208413      12.01100000
C       -3.43134572       2.73428080      -4.41520631      -0.52857946       0.58070789       0.82689593      12.01100000
C       -1.22952065       2.37491794      -5.57299230      -0.79694838       1.02816861      -0.17049402      12.01100000
C       -1.42049254       4.32649914      -3.93474654       0.18747787       0.80600752      -1.46685739      12.01100000
C        0.80874039       5.25192119      -3.00792674       0.50520809       0.40313303       0.76096738      12.01100000
C       -1.44384639       5.54726990      -1.74954046       0.99952591      -1.32720941       0.35345408      12.01100000
C        0.05990526       4.61714353      -4.02101515      -0.11267877       0.16053790       0.07315188      12.01100000
C       -2.18981332       5.05223415      -2.98098449       0.15258914      -0.73504472       0.54092327      12.01100000
C        0.01648129       5.94069991      -1.87667445       0.72802256      -0.01139990       0.72617993      12.01100000
C       -1.86111169      -4.81149294      -3.33577283       0.65057054      -0.37611250       0.65115338      12.01100000
C        0.61527610      -5.21781127      -2.95904953      -0.52398401       0.18887368       1.77479234      12.01100000
C       -0.11378957      -3.71796343      -4.95734745       0.36284939       0.04750737      -0.12761232      12.01100000
C       -0.74023971      -5.54193611      -2.70636773      -0.56655751      -0.17930685      -0.98718458      12.01100000
C       -1.53565156      -3.99712606      -4.60070636      -0.03179687      -1.51378896       0.20706318      12.01100000
C        0.90388198      -4.50261006      -4.29511092      -0.88078706       0.74883128       0.11062276      12.01100000
C        0.22143944      -2.45023177      -5.72641525       0.04725814       1.66918424      -0.61396202      12.01100000
C        1.98365692      -0.47744653      -5.63111363      -0.71962226      -1.77126750       1.75247511      12.01100000
C       -0.52933103      -0.03903332      -6.18227747      -0.49312821      -0.81211127       2.12779880      12.01100000
C        1.59146672      -1.90483578      -5.55616168      -0.20977160       0.78861218       1.09033236      12.01100000
C       -0.79615957      -1.46000371      -5.94921493      -0.46485386      -0.49970306      -0.03704609      12.01100000
C        0.93550240       0.37580064      -5.97454580       2.09476418       0.76024810      -1.21109886      12.01100000
C       -0.75385534      -5.22215891       3.02327407      -0.23040985      -0.53386713      -0.45992573      12.01100000
C        1.50415322      -4.39156804       4.10501107      -0.63243942      -0.33592062      -1.50680262      12.01100000
C        1.47084823      -5.63462587       1.83774848       0.08714224      -0.30497017       0.42881053      12.01100000
C       -0.04923529      -4.61178188       4.11091530      -0.61421951      -0.11157593      -0.86357282      12.01100000
C        0.00732070      -5.91195086       2.01461250       0.18396074      -0.58726063       0.78045778      12.01100000
C        2.12306806      -4.96456014       2.89928883      -1.23117045       0.94126825       0.83766255      12.01100000
C        1.60585298      -5.50470017      -2.03859650       0.14849323       0.45633181      -0.38409038      12.01100000
C        3.72487272      -4.54152681      -1.03520719       1.49227330      -0.27553005      -0.69253188      12.01100000
C        2.04569469      -5.75480830       0.51368074      -1.35565303      -0.65004599       0.09930488      12.01100000
C        2.93772034      -4.85959873      -2.13081028       0.25197196      -0.08624544       0.22837612      12.01100000
C        1.18915215      -6.00299453      -0.69798896       0.16716675       0.01955959       0.14391973      12.01100000
C        3.33674051      -5.13346758       0.30484104      -1.02003498       0.80420346       0.03318495      12.01100000
C        1.46823639      -1.06277573       5.88908513       0.38581769      -1.32533891       0.57431002      12.01100000
C        3.79567270      -1.31195971       4.61147791       0.48078298      -0.08337508      -0.02652486      12.01100000
C        2.09890504      -3.31090901       4.87397201      -0.79242182       0.73607267      -0.58390946      12.01100000
C        2.95893338      -0.55050664       5.46881792       0.04176649      -0.51078852      -0.50446729      12.01100000
C        1.21265068      -2.43489180       5.72162092       0.76859899      -0.28141924      -0.82600585      12.01100000
C        3.38428218      -2.80817952       4.48155324      -0.65538578       0.80213529      -0.81877219      12.01100000
C        5.49369086      -1.52340314      -2.43385240      -1.43510772      -0.25925488      -0.56297029      12.01100000
C        4.84026258      -3.58491570      -1.13436475      -0.59303824      -0.20949165      -0.76762158      12.01100000
C        5.94544478      -1.66179897       0.10634698       1.40942565      -0.62521562      -0.83178791      12.01100000
C        4.87548988      -2.80108100      -2.31310728      -0.72027464      -0.14120258       0.26811630      12.01100000
C        5.93537099      -0.91603655      -1.20609740      -0.45887923       0.08285654       1.53662652      12.01100000
C        5.43669184      -3.04141885       0.15481146       0.48663321      -1.25037740       0.08389855      12.01100000
C        5.05533818      -0.56257886      -3.47823524      -0.76909319       0.71972586       0.14764944      12.01100000
C        3.28861113      -0.05236380      -5.19075213       0.00520276      -0.59308165       0.03332483      12.01100000
C        4.36025356       1.93451588      -3.91489527      -1.15307908       0.25165795      -0.88728833      12.01100000
C        4.22061025      -1.00931370      -4.59127064      -0.03314325       0.74351533       1.28644957      12.01100000
C        5.25411808       0.88470379      -3.28509568      -1.15948312       1.45000176       0.48595686      12.01100000
C        3.50342516       1.40858071      -4.98180848      -0.52304410      -0.31729608      -0.44983922      12.01100000
C        4.03837787       3.20170281      -3.27769942       0.33712005       0.67298595       0.25406987      12.01100000
C        2.26863736       5.00403816      -2.91022947      -0.76712518       0.69033905      -0.50890374      12.01100000
C        4.08299195       4.66191009      -1.07321153      -0.24355101       1.35679697      -0.12264137      12.01100000
C        2.95700404       4.03772257      -3.76506686       1.78611235       0.90565262      -0.57601516      12.01100000
C        4.58012700       3.57360031      -1.93701097      -0.06454334      -1.15490668       0.23376054      12.01100000
C        2.93371389       5.35937120      -1.58904696      -0.97822229      -0.80761960      -0.14346589      12.01100000
C        4.40054032       4.52407516       0.33440241      -0.04756077      -0.45654135      -0.07965493      12.01100000
C        3.17056493       4.53140304       2.62158983       1.10054723       1.41643765      -0.85570099      12.01100000
C        5.05776515       2.88652964       2.20999417      -0.03541543       0.63193026      -0.17652472      12.01100000
C        3.43043120       5.18504778       1.36249346      -0.80127029      -0.17263329      -0.26994383      12.01100000
C        5.24404369       3.37955229       0.88721817      -1.04824925      -0.59731808       0.27377824      12.01100000
C        4.04898133       3.47260766       3.10230563       0.74125127       0.90164228       0.29717649      12.01100000
C        5.46466564       1.44237195       2.51031772       0.21589004      -0.27797272      -1.49047223      12.01100000
C        4.81515896      -0.73213075       3.70957124       0.60750888       0.12754808      -1.12916057      12.01100000
C        5.83231888      -0.87924453       1.35770950      -0.52314097       0.74488540       0.95590493      12.01100000
C        4.89658996       0.75893052       3.63673233      -1.25206447      -0.00044187      -0.10557655      12.01100000
C        6.07209503       0.58318198       1.42638897      -1.17942758      -1.73282913       0.21887476      12.01100000
C        5.31582855      -1.52535618       2.57506226      -0.74725912       0.02491207      -0.13588029      12.01100000
O        0.12330218      -0.01808714       0.24604399       1.20674121       0.09247676      -1.14865655      15.99900000
H       -0.18776663      -0.78663981      -0.33378126      -0.00197478      -0.19343118       0.03931423       1.00800000
H       -0.25075226       0.80762927      -0.09348250      -0.06029991      -0.20803487      -0.37166620       1.00800000
