243
Properties=species:S:1:pos:R:3:momenta:R:3:masses:R:1 C60-Ih=T time_fs=97000.0 step=97000 energy=-2133.449689235468 free_energy=-2133.449689235468 stress="0.0 0.0 0.0 0.0 0.0 0.0 0.0 0.0 0.0" pbc="F F F"
C       -1.65946397       2.43757208       1.67164851      -0.27719228      -1.02729600       0.36091189      12.01100000
C       -2.62059843       1.27371277       1.74544171       1.03781127      -0.04135973      -0.93724424      12.01100000
C       -1.44616405       3.09446064       0.48592360      -1.44304521      -0.09989564       0.37730582      12.01100000
C       -3.43650123       0.98499098       0.64887201       0.55635599       0.93242011      -0.60386473      12.01100000
C       -3.54205156      -0.39125031       0.45104610       0.01820524      -0.19875954       0.18564532      12.01100000
C       -2.05323348       0.38532965       2.69596730       1.07905866      -0.44915927      -0.22076669      12.01100000
C       -2.25840320      -0.91788507       2.49529733      -0.11223934       0.74107335       1.42274078      12.01100000
C       -3.05896883      -1.34329606       1.40354147      -1.50553112      -0.65202406       1.22035299      12.01100000
C        0.92696757       3.15523332       0.93622358       0.07954423      -0.40287087       1.06180413      12.01100000
C        0.65361069       2.47655938       2.14006057      -0.21378589      -0.44484934       0.50612404      12.01100000
C       -0.09410008       3.49061632       0.09868796      -0.78126631       0.16746973       0.33780958      12.01100000
C       -0.55362037       2.19151222       2.49463673       1.04772058       0.71728478       0.31479179      12.01100000
C       -0.80324445       0.92448308       3.15738227       0.70645871       0.75624515      -1.59179857      12.01100000
C        1.74596803       1.52758873       2.36760520       0.86375551      -0.36810963       0.56721538      12.01100000
C        1.49558491       0.31999520       2.96537357       0.36617166       1.06755311       0.46908659      12.01100000
C        0.16202477       0.00822185       3.40903689      -0.56046706       0.16603644       0.25384528      12.01100000
C        1.20570405       2.60817864      -1.70174853       0.40073915      -1.19622832      -0.44504949      12.01100000
C        2.37517915       2.41170753      -0.91463931       0.10304611      -0.62245262       0.42325513      12.01100000
C        0.06218852       3.26377226      -1.30509735       0.73867883       0.60619978      -1.09006256      12.01100000
C        2.15115812       2.58023142       0.45404151       0.52660063       1.25640643       1.24026702      12.01100000
C        2.64611058       1.64290386       1.32741114      -0.97349684      -0.71272214       1.17717659      12.01100000
C        2.98750004       1.19352611      -1.40235590       0.32463420       0.72806477      -0.30069859      12.01100000
C        3.60837436       0.37814544      -0.50969719       0.36906242      -0.86677928       1.18650114      12.01100000
C        3.47124574       0.59193720       0.96763129       0.14046609      -0.21715270      -0.07402714      12.01100000
C       -1.31790063       1.82921224      -2.76006897       0.30926478      -0.79301049      -0.00935392      12.01100000
C       -0.06489980       1.26905194      -3.23543027       1.46202833       0.94922879      -0.01525453      12.01100000
C       -1.24750371       2.81020879      -1.83571614       0.99779518      -0.48656573      -1.16129376      12.01100000
C        1.15249036       1.74646377      -2.84498631      -0.78109494       0.03255380       0.69372980      12.01100000
C        2.27348755       0.89652554      -2.59884148      -1.55768417       0.52407325       0.36206843      12.01100000
C       -0.20692147      -0.10403864      -3.54457225      -0.76770184      -0.40513689       0.63388480      12.01100000
C        0.84648450      -1.00036096      -3.28167259      -0.45689654       1.05457895      -0.16336774      12.01100000
C        2.06784156      -0.57411008      -2.76756755       0.61334385      -0.60354419      -0.28671904      12.01100000
C       -3.07458415       1.62584065      -0.59666681       0.10623285       0.39610284      -0.01827210      12.01100000
C       -3.14556899       0.60800756      -1.66569447      -0.99579253      -1.19460477       0.37235947      12.01100000
C       -2.18760889       2.71287620      -0.76502090       0.06323866      -0.46684645      -0.50925121      12.01100000
C       -2.26310700       0.81250811      -2.78435084       1.12249259      -0.23678906      -0.41663454      12.01100000
C       -1.58624085      -0.47967950      -3.16759585       0.38976020      -0.53727408      -0.10634302      12.01100000
C       -3.40555352      -0.57999009      -0.98478198       0.53413913       0.11960392       0.43303859      12.01100000
C       -2.69602371      -1.70389276      -1.37961391      -0.41840805      -0.70291653       0.49938471      12.01100000
C       -1.85704728      -1.65712195      -2.51769425       0.74607782      -0.02688236      -0.38396575      12.01100000
C        1.68264266      -2.56482760      -1.79854466       0.61553292       0.02846664       0.27589545      12.01100000
C        0.60343982      -2.23243226      -2.67335294      -0.19936082      -0.19935197      -0.72111105      12.01100000
C       -0.71599597      -2.44136002      -2.24810126      -0.89317984      -1.92340256       0.22519696      12.01100000
C        1.48639148      -3.08403794      -0.58469453      -0.80272532       0.25445698      -0.20248362      12.01100000
C        3.03718239      -1.72703883       0.47582361      -0.25634781      -0.79944221      -0.43348016      12.01100000
C        3.25459833      -1.05268104      -0.67695805      -1.20756668       0.04556238       0.39018868      12.01100000
C        2.62849036      -1.48462406      -1.82725653      -1.00740568      -0.14902294      -0.73111163      12.01100000
C        2.18404464      -2.75918891       0.56568564       1.14358720       0.73593584       0.25527500      12.01100000
C        1.27602045      -1.86247394       2.60890616       0.14608222       0.37225372       0.87362512      12.01100000
C        2.19762219      -0.82189298       2.53262172      -0.69717401       0.79056870       0.38304764      12.01100000
C        3.09560037      -0.64699207       1.57578850       0.60410386       0.40045151       0.17586893      12.01100000
C        1.28916603      -2.87419465       1.68746615      -0.78179513      -0.40858052       0.23629682      12.01100000
C       -1.18177018      -2.83627624       1.73584801      -0.32687682      -0.60042801       0.45483389      12.01100000
C       -1.23870123      -1.90533276       2.80293197      -1.11280051      -0.11487164      -1.31601652      12.01100000
C       -0.00891389      -1.34655644       3.21747176       0.15603539      -0.12564939       0.68449561      12.01100000
C        0.02008214      -3.35751800       1.23881889      -0.32367316      -0.25896485       0.07838655      12.01100000
C       -0.88853309      -3.09149716      -0.98160974      -1.45073375       0.79110856       1.03929676      12.01100000
C       -2.16305159      -2.70592703      -0.47426250       0.29671419      -0.71787932      -0.33857782      12.01100000
C       -2.36863558      -2.53692534       0.88345909      -0.46371332       0.58876101      -0.09232755      12.01100000
C        0.10570852      -3.51141980      -0.12826701      -1.04464264       0.92963561      -0.07872801      12.01100000
C       -6.23335202      -0.71855697       1.38645896      -0.71549227       0.39371321       0.37133935      12.01100000
C       -6.19981502      -1.44372632       0.12817182       0.05154045      -0.06207336       0.23309278      12.01100000
C       -5.55151055      -2.68999614       0.40333661      -0.07076414       0.32479932       0.85035357      12.01100000
C       -5.38669884      -2.93234670       1.84545583      -0.01839069       0.05172440      -0.12609619      12.01100000
C       -5.66788601      -1.66180743       2.49215745      -0.50766077       0.30266927      -0.61719858      12.01100000
C       -3.18442314       4.16298173       3.58388209      -0.63997839       0.14642992       0.36888668      12.01100000
C       -4.16402673       3.10263108       3.75228929      -0.13818879      -0.00463814       0.16100938      12.01100000
C       -3.58280091       2.14371493       4.76420415       0.29259226      -0.56656108       0.18168403      12.01100000
C       -2.38475513       2.70753835       5.26202147       1.81928646      -0.03870627       0.20226198      12.01100000
C       -2.13243922       4.01898501       4.58967333      -0.47708911      -0.24644438       0.19592031      12.01100000
C       -4.50713429       3.27829389      -3.17057701       0.44674215      -0.54660843      -0.41933144      12.01100000
C       -5.48793331       2.73947167      -2.31238213       0.67784249      -0.18348853       0.12135423      12.01100000
C       -5.33350662       3.37590162      -0.99658148      -0.35034175      -0.11150571       0.02535711      12.01100000
C       -4.43828948       4.54874212      -1.16195974       0.11609197       0.30422728       0.33179169      12.01100000
C       -3.89441110       4.45184244      -2.51244375       0.45455592      -0.19507616       0.27907358      12.01100000
C       -2.70022361      -3.16149045      -4.98828100       0.92866211      -0.35494124      -0.44351618      12.01100000
C       -3.86929720      -2.94873183      -4.18027669       0.36529074       0.55790806      -0.03865592      12.01100000
C       -4.23717988      -1.58649545      -4.40543555      -1.04497395       1.25508626       0.74327581      12.01100000
C       -3.43373264      -0.98352623      -5.37506216       0.36383264      -0.72737380       0.13338298      12.01100000
C       -2.42926150      -1.94267187      -5.79138871      -0.15260431       0.94706528       0.55150240      12.01100000
C       -0.38349334      -6.40405216       0.90956510       0.95633098       0.69490290      -0.42160942      12.01100000
C       -1.78011691      -6.00044388       0.80586253      -0.59890045       0.26407597      -0.77557928      12.01100000
C       -2.05409318      -5.82067329      -0.58221046      -0.15921788      -0.65442438       0.27431205      12.01100000
C       -0.87724583      -5.96883060      -1.32423516       1.41621135      -1.32496145      -0.50540176      12.01100000
C        0.18643665      -6.31392882      -0.42122702      -0.35839896      -0.87414565       1.01548606      12.01100000
C       -0.64327126      -1.75610369       6.04554710      -0.12246585      -0.44103224       0.71866874      12.01100000
C       -1.97145680      -2.24943553       5.47007960       1.11853572      -0.60241105      -0.63015496      12.01100000
C       -1.73729348      -3.58010769       5.00567816      -0.25743702       0.58230703       0.92419498      12.01100000
C       -0.29513954      -3.74328324       5.03507789      -1.21458509       1.00601341       0.94889606      12.01100000
C        0.34806484      -2.72266709       5.81631838      -0.16665004       0.53506854       0.35169627      12.01100000
C        6.32901767       0.68278933      -1.47834472       0.58944025       1.03158523      -1.09454901      12.01100000
C        5.66007796       1.48944451      -2.51552081      -0.08362229       0.85511997       0.31218796      12.01100000
C        5.46907252       2.83200190      -1.86864612      -0.66931803       0.08642782       1.15216732      12.01100000
C        5.62224084       2.68802927      -0.41030051       0.23292825       0.19023681      -0.43131624      12.01100000
C        6.17816487       1.38299259      -0.16720820      -0.39796735       0.66761891      -0.85049162      12.01100000
C        2.06370408      -3.96996659      -4.51738644      -1.45399196      -1.19836731      -1.63685647      12.01100000
C        2.36614540      -2.75072598      -5.24838922       0.26923839      -0.42254307      -0.21453787      12.01100000
C        3.55009506      -2.19764369      -4.71397504      -0.17391346      -0.04520271      -0.71017309      12.01100000
C        4.04568526      -3.06464769      -3.64844973       0.32608044       0.34560003      -1.26409977      12.01100000
C        3.12879071      -4.17609643      -3.62585067       0.60119507      -0.37830398      -0.52447157      12.01100000
C       -0.22048899       2.66646179      -5.60518167      -0.15795561      -1.14751533       1.07377007      12.01100000
C        0.25754826       3.79865555      -4.94057910       0.11584272      -0.03750815      -0.08608458      12.01100000
C        1.71676226       3.68606748      -4.99907677       0.30513323       0.25129439       0.18059571      12.01100000
C        2.05189126       2.41023539      -5.63634820      -0.08730177      -0.35371207       0.42774719      12.01100000
C        0.78471923       1.81068960      -6.02603791      -0.39028141       0.60288988       0.63061606      12.01100000
C       -0.18373939       6.33319062       0.51849893      -0.49978873       0.27524004       0.65900290      12.01100000
C        0.95373699       6.06182704       1.38951388       0.51644499       0.37214367       0.06196631      12.01100000
C        2.10721663       5.86433817       0.60213827      -0.54598861       0.03574081      -0.63857461      12.01100000
C        1.79433771       6.06954111      -0.75670749       0.31488014      -1.13661296       1.75487333      12.01100000
C        0.36567759       6.23402319      -0.83082234       0.38802676       0.06715079      -0.04430893      12.01100000
C        2.41557428       1.93991726       5.54406609      -0.31922422      -0.37620312       1.22351877      12.01100000
C        3.43440986       1.03397728       5.30722347      -0.82430782       0.44971460      -0.28468698      12.01100000
C        4.40194127       1.62937145       4.45525106      -0.49159760      -0.04318629       1.73743943      12.01100000
C        3.90799706       2.89878063       4.09432843       0.43467924       0.79436153      -0.55069863      12.01100000
C        2.71456325       3.15105195       4.82772570       0.50362537      -0.73455950      -0.85126420      12.01100000
C        3.88492009      -4.44816264       2.61813062       0.44159019      -0.63217045      -0.65472768      12.01100000
C        4.30630060      -4.50182497       1.22570945       1.47570900      -0.55609716      -0.80369301      12.01100000
C        5.30033001      -3.55199486       1.21618723      -0.03380641       1.55696735      -0.02531872      12.01100000
C        5.37937450      -2.75507771       2.46671184      -0.84243713      -0.57588179       0.31275312      12.01100000
C        4.49862688      -3.34663297       3.38812268       0.65753577      -0.17803494      -1.19041481      12.01100000
C       -6.22571504       1.44965951       0.20807863       0.12723738      -0.36786547      -0.83130227      12.01100000
C       -4.99803598       3.41478899       1.45845048      -0.72000774       0.45091576      -1.51954068      12.01100000
C       -5.50637275       1.32405661       2.75651087       0.90499211       0.69172704       0.50282230      12.01100000
C       -5.61321214       2.77366340       0.30267632      -0.41102128       0.16297948       0.40455281      12.01100000
C       -6.15429293       0.75871834       1.44863039       0.02085295       0.24862422      -1.85797067      12.01100000
C       -5.02314593       2.67292436       2.70016342       0.05096891       0.59963723      -0.07295080      12.01100000
C       -6.17073318       0.74160658      -1.11371436      -1.11930349       0.80461459       0.09789530      12.01100000
C       -5.10661852       0.61281123      -3.50108974       0.96482358      -0.95555170      -0.61582604      12.01100000
C       -5.48652175      -1.57675132      -2.20253351      -0.59466958       0.94777034       0.07566747      12.01100000
C       -5.66586243       1.30710556      -2.41110388      -0.65224693       0.49821058       0.08489261      12.01100000
C       -6.10344299      -0.77902275      -1.11440769      -0.39660244      -0.39392246       0.86544217      12.01100000
C       -4.98868836      -0.89137837      -3.43777943      -1.71327524      -0.71587837      -0.36071284      12.01100000
C       -4.95925626      -2.89100861      -1.96556682       0.72711473       0.02429668      -0.96427245      12.01100000
C       -3.13360522      -4.62142905      -2.41903412       0.71240374      -0.50628371       0.52945168      12.01100000
C       -4.11496120      -4.59708587      -0.07993762       0.41395348       0.95713574      -0.36757450      12.01100000
C       -4.05075072      -3.52223356      -2.85143978       0.30097941      -0.05651169       0.04289924      12.01100000
C       -4.93458003      -3.40482757      -0.57711773      -0.86237782      -0.60263273      -0.65522111      12.01100000
C       -3.11828702      -5.06781549      -1.12306410       0.05964848       0.48153257      -0.89017979      12.01100000
C       -3.78370579      -4.69463188       1.40496292      -0.43878880       0.60417332       0.95590306      12.01100000
C       -1.85769200      -5.02875386       3.03987223      -1.20884021      -1.91121736       0.51303487      12.01100000
C       -3.73052603      -3.38097278       3.54587437       0.49487056      -1.03789133       0.21413520      12.01100000
C       -2.56363717      -5.31596500       1.81449155       0.76638008      -0.89209213       0.36384665      12.01100000
C       -4.47445670      -3.80860993       2.36745608      -0.58827628      -0.39926876      -1.27753992      12.01100000
C       -2.50773806      -4.10325286       3.99250708       0.25787333       0.97065052       0.74613574      12.01100000
C       -4.93539848       0.34487439       3.79279321      -0.59361827       0.37206837      -0.65589267      12.01100000
C       -2.89669193      -0.02701793       5.35456735      -1.42728316      -0.13180797       0.74732791      12.01100000
C       -4.01001643      -2.05300144       4.17304787       0.73678097       0.65325683      -0.25213570      12.01100000
C       -3.95417837       0.78042890       4.69143606      -0.18065302      -0.16197627      -0.26988055      12.01100000
C       -5.04203362      -1.15971307       3.69377015       0.33127264       0.68953796      -1.00796927      12.01100000
C       -3.07156136      -1.50742373       5.16316129       0.06202647       0.77565520      -0.14126929      12.01100000
C       -3.94398408       4.47732085       1.26171969       0.19647129      -0.99288984       0.96120255      12.01100000
C       -2.29326753       5.73526191      -0.39015618      -0.07453662      -0.95307725       1.75620453      12.01100000
C       -1.79932989       5.47500577       2.14374659      -0.37329753       0.04104891      -0.28006594      12.01100000
C       -3.62015856       5.01591582      -0.03569534       1.28206913       0.25635335       0.68418938      12.01100000
C       -3.03139877       4.80561121       2.37398274      -0.89143969      -0.07971407       0.27478737      12.01100000
C       -1.54794836       5.98084394       0.75719305       1.05340672      -0.87375957      -0.33329121      12.01100000
C        0.02897864       2.47392422       5.62138289       0.84472289       1.25349228      -0.96906898      12.01100000
C        0.96684664       0.14610285       6.15136391       0.29742876      -0.65415699       0.49904038      12.01100000
C       -1.57417863       0.49700202       5.88571399       0.34190069      -0.71732382      -0.67340446      12.01100000
C        1.13622629       1.56280921       5.88914686      -0.59310962      -0.17740594       0.71304621      12.01100000
C       -1.27369919       1.91857003       5.55959547       1.21448091       0.11145131       0.71357629      12.01100000
C       -0.39262380      -0.33143689       6.28069956       0.74339470       0.17880978      -0.68026892      12.01100000
C       -0.65817423       5.27821511       3.17581813       0.87100037       0.51623122      -0.11264408      12.01100000
C        1.85489001       4.82820890       3.14783782      -0.52380016       0.61435842       0.09026032      12.01100000
C        0.26637451       3.68789907       4.85219834      -0.34849237       0.48191586      -1.07239227      12.01100000
C        0.71839470       5.57746162       2.68354931      -0.83110867       0.57951765      -1.18838536      12.01100000
C       -0.87287847       4.55182403       4.42927054      -0.44226248      -0.54369638       1.18328525      12.01100000
C        1.59343717       4.05772100       4.39588299       0.90010564      -0.35366341      -0.27718145      12.01100000
C       -4.15155944       1.25786938      -4.50309810       1.62478290       0.22685863      -0.90085344      12.01100000
C       -1.85324197       0.91060643      -5.72474504      -0.53858891       0.52034857      -0.29900483      12.01100000
C       -2.55229588       3.23484745      -4.74839026       0.40365237      -1.00548661      -0.51952557      12.01100000
C       -3.14756531       0.38994472      -5.26987461      -0.16456980       0.58017458       0.07739053      12.01100000
C       -3.85041876       2.72196875      -4.38514661      -1.20481563      -0.02453435      -1.46889298      12.01100000
C       -1.58902611       2.34156984      -5.57710701       1.09855028       0.79496907      -1.05737242      12.01100000
C       -2.00046396       4.37515453      -3.99631619      -0.18702034      -0.70837661       0.73692302      12.01100000
C        0.39957772       5.32718147      -3.15313171      -0.23408586       1.24807971       0.51880134      12.01100000
C       -1.75692098       5.66376821      -1.69825358      -0.35905822       0.24246633      -1.59173036      12.01100000
C       -0.54190163       4.65664415      -4.14597483       0.03437514       0.06062083       0.85579204      12.01100000
C       -2.52470510       4.89213416      -2.73452685       0.41996786       0.19643350       0.05066625      12.01100000
C       -0.28643655       6.01198627      -2.03391116      -0.01089170      -0.44635465      -1.33026691      12.01100000
C       -1.94044277      -4.73624566      -3.10317868      -0.12709545       0.27845542       0.95388283      12.01100000
C        0.59126488      -5.14217488      -2.98093622      -0.24505288       0.46719327      -0.19169783      12.01100000
C       -0.31796069      -3.80627318      -5.01047756       0.64755037      -0.47390282      -0.43202787      12.01100000
C       -0.74078122      -5.35201780      -2.60097843      -0.27173102       0.28252836      -1.12165186      12.01100000
C       -1.68840251      -3.95849404      -4.33474923      -0.69241970      -0.43022783      -0.34454907      12.01100000
C        0.79006458      -4.43022259      -4.25015988      -0.84871170      -0.40579780      -0.34083128      12.01100000
C        0.01208279      -2.49732159      -5.88918314       0.74380988       0.09692372       0.09747515      12.01100000
C        1.69981611      -0.52189285      -5.98922975       0.29169934       0.11392538      -0.28792971      12.01100000
C       -0.74930366      -0.10957858      -6.03141098      -0.24594009       0.54859295       0.34451647      12.01100000
C        1.35732624      -1.95144610      -5.81276706       1.28278207       1.54594946      -0.95034883      12.01100000
C       -1.10297476      -1.56389966      -6.00890012       0.58518775       0.08076896      -0.42914102      12.01100000
C        0.64491404       0.37702524      -6.17395949      -0.06322841       0.71249476       0.88140899      12.01100000
C       -0.32829863      -5.20017784       3.04245028      -0.96861304       1.05793787       0.10675167      12.01100000
C        1.89070667      -4.22092149       4.03440155       0.53748388      -0.25489619      -0.02125145      12.01100000
C        1.85038563      -5.52146311       1.79544982       0.50491761      -0.25342696       0.84643669      12.01100000
C        0.45685073      -4.46352621       4.11801998       0.88624537      -0.96508931       1.24610507      12.01100000
C        0.42464890      -5.81197800       1.96401686      -0.01346149      -0.32714982      -0.50572905      12.01100000
C        2.48594375      -4.79109836       2.81760038       0.20185308       0.48750976      -0.21048000      12.01100000
C        1.76348764      -5.42026135      -2.12280157      -0.51312530      -0.22218192       0.93953091      12.01100000
C        3.94551858      -4.43165145      -1.22726261       0.56848962      -0.59980680       0.40445183      12.01100000
C        2.41130868      -5.60728019       0.38071746      -0.47519814       0.64261286       0.22135557      12.01100000
C        3.03998741      -4.79507120      -2.33278043       0.92255471       0.07022462      -0.33300571      12.01100000
C        1.54424117      -5.97612440      -0.73671937      -0.10686229      -0.72413455       1.77397726      12.01100000
C        3.70533765      -4.94104807       0.06967081      -0.90476532       0.45871695      -1.08115841      12.01100000
C        2.02183184      -0.79861900       5.84188026      -0.38991933       0.31787699      -1.49810759      12.01100000
C        4.20453602      -1.17496667       4.56775817       1.19509322       0.29733303      -0.07183747      12.01100000
C        2.54868746      -3.07391127       4.75389337       0.59868821       0.67243318       0.80530621      12.01100000
C        3.33041344      -0.36495912       5.37565997       0.60502608       0.59567048       1.33127682      12.01100000
C        1.72738419      -2.33305437       5.72786659      -0.48397980      -0.34983050      -0.89388858      12.01100000
C        3.74919656      -2.48643588       4.32776704      -1.11260796      -0.29644673       0.28929292      12.01100000
C        5.37950191      -1.26831572      -2.68070973       0.12700030       0.42662711      -0.93128192      12.01100000
C        4.87168780      -3.35664528      -1.34688424       0.19290163       1.12277536       0.59994850      12.01100000
C        5.89167621      -1.40766144      -0.13879346      -0.68616617      -0.30326238      -0.50160650      12.01100000
C        4.90706774      -2.63388334      -2.55292018      -1.15942503      -0.03216628      -0.65737554      12.01100000
C        5.99013542      -0.73269108      -1.41181571       0.09854154       0.43989615      -0.42655150      12.01100000
C        5.39050762      -2.80627630      -0.08319704      -0.35063211      -0.05016790       0.99902498      12.01100000
C        4.86030152      -0.43748907      -3.74896606       0.14071032       0.42134700       0.03564678      12.01100000
C        2.97329190       0.01856293      -5.42538349      -0.67401475      -1.30492354       0.63027757      12.01100000
C        3.99100693       2.04373862      -4.18436304       0.72619550      -0.16022867       0.07873056      12.01100000
C        3.94851528      -0.86189589      -4.73395396       0.88369222       0.32038732       0.36474786      12.01100000
C        4.95649787       1.08349717      -3.72980941      -0.84374320      -1.08098405       0.02763755      12.01100000
C        3.00313897       1.44759402      -5.19504688       0.12378752       0.90001687       0.64546412      12.01100000
C        3.70153383       3.38972997      -3.58125184       0.52049260      -0.05148919      -1.17926833      12.01100000
C        1.84352655       5.06742068      -3.05859169       0.55137600      -0.47240719       0.22548658      12.01100000
C        3.83023733       4.66854118      -1.35580631       0.35282928      -0.64000129      -0.59471029      12.01100000
C        2.49477416       4.12633494      -3.88659713       0.16182565       0.04504969       1.03549498      12.01100000
C        4.34789478       3.71844158      -2.33839690      -0.29466599       0.86092925      -1.17008750      12.01100000
C        2.62366955       5.40421724      -1.79901306      -1.31199179      -0.04696465      -0.97169474      12.01100000
C        4.11797404       4.58864824       0.12174664       0.03478723       0.38967136       0.27299710      12.01100000
C        3.05890066       4.53239003       2.39100395      -0.74496432       0.56906783      -1.30088401      12.01100000
C        5.01264746       3.01437799       1.93386102      -0.31230982       0.63369573       0.42799718      12.01100000
C        3.17142311       5.06339308       1.12385726      -0.91075896      -0.11424587       1.83473428      12.01100000
C        5.03313357       3.54848206       0.65144259       0.52620147      -0.49694110       1.10826067      12.01100000
C        4.06993220       3.57909278       2.84528532      -0.36788325      -1.44796552      -0.80646211      12.01100000
C        5.62363968       1.64388504       2.31027796      -0.74698731       0.09140162      -0.33379305      12.01100000
C        5.18441590      -0.56418738       3.59582025      -0.49380173      -0.02037672      -0.85573619      12.01100000
C        5.93014648      -0.69298542       1.24611480       0.42859514      -0.91862257       0.20059621      12.01100000
C        5.21288684       0.88069880       3.46127036       0.20431559       0.40545459       0.35446819      12.01100000
C        6.05570208       0.83675247       1.16064475       0.31792898      -1.21862836       0.20882589      12.01100000
C        5.65630728      -1.37055555       2.47124009       1.14855585       0.15168808      -0.88274020      12.01100000
O        0.07006292       0.19237519      -0.04704445       1.25542113      -1.54317006      -0.20820448      15.99900000
H       -0.87354564      -0.15355766      -0.05812165       0.18286416       0.19055019      -0.20402104       1.00800000
H        0.60892649      -0.55830694       0.29409906      -0.23115757       0.03808843       0.08109164       1.00800000
