243
Properties=species:S:1:pos:R:3:momenta:R:3:masses:R:1 C60-Ih=T time_fs=0.0 step=0 energy=-2119.233538824585 free_energy=-2119.233538824585 stress="0.0 0.0 0.0 0.0 0.0 0.0 0.0 0.0 0.0" pbc="F F F"
C        2.16650000       0.59060000       2.58740000       0.17645238       0.07101008      -0.01940733      12.01100000
C        3.03780000       0.17660000       1.59180000      -0.00877207       0.08920750       0.11927150      12.01100000
C        1.27860000      -0.30980000       3.16790000      -0.26019521      -0.13902860       0.04795584      12.01100000
C        3.01180000      -1.14340000       1.16540000       0.01698719       0.10320921       0.16649135      12.01100000
C        3.10340000      -1.43350000      -0.19300000      -0.14621425      -0.03236555       0.12269964      12.01100000
C        3.15030000       1.21060000       0.66820000       0.09435385      -0.04654173      -0.02429503      12.01100000
C        3.24280000       0.91490000      -0.68590000       0.10268985      -0.08210731       0.02231915      12.01100000
C        3.21920000      -0.40230000      -1.12070000       0.15004540      -0.15570930      -0.14916620      12.01100000
C       -0.43930000       1.35270000       3.12710000       0.10749306      -0.09401325      -0.03617323      12.01100000
C        0.43630000       2.26180000       2.55420000      -0.14968359      -0.03987488       0.06627804      12.01100000
C       -0.02960000       0.06330000       3.43790000       0.07678044       0.07303696      -0.14455751      12.01100000
C        1.74420000       1.87900000       2.28300000      -0.03707746      -0.07382867      -0.01167876      12.01100000
C        2.35190000       2.26760000       1.09900000       0.12314849       0.02924577      -0.01280770      12.01100000
C       -0.26330000       3.02680000       1.63260000       0.02484258       0.09459687       0.00171299      12.01100000
C        0.33740000       3.40540000       0.43730000       0.06672639      -0.04403981       0.00477210      12.01100000
C        1.65160000       3.02780000       0.17070000      -0.02708547       0.07828362       0.00654389      12.01100000
C       -2.09030000      -0.82250000       2.59550000      -0.12770839      -0.11402794      -0.03716957      12.01100000
C       -2.51110000       0.46640000       2.28540000       0.02174011       0.18073904       0.05737616      12.01100000
C       -0.84490000      -1.02520000       3.17380000      -0.04831395       0.09032756       0.12319776      12.01100000
C       -1.68740000       1.55330000       2.55120000       0.00842493       0.09937324      -0.11948258      12.01100000
C       -1.58430000       2.58580000       1.63190000       0.18623535      -0.08226542       0.02770913      12.01100000
C       -3.23140000       0.40610000       1.10070000      -0.14471043       0.04316621       0.07077664      12.01100000
C       -3.12270000       1.44100000       0.17460000      -0.23646139      -0.00483629      -0.05457768      12.01100000
C       -2.29470000       2.52910000       0.43990000       0.05495344      -0.16002167       0.19689309      12.01100000
C       -0.49080000      -2.91330000       1.73650000      -0.00824050      -0.03494337      -0.09150673      12.01100000
C       -1.74300000      -2.71240000       1.16370000       0.10920974       0.15850115      -0.13027314      12.01100000
C       -0.03930000      -2.06840000       2.74530000      -0.04517079       0.09085552       0.05154539      12.01100000
C       -2.54860000      -1.66500000       1.59420000      -0.07459628       0.02127672       0.10254064      12.01100000
C       -3.26020000      -0.91410000       0.67010000      -0.08489011       0.05044010       0.11130445      12.01100000
C       -1.65430000      -3.00610000      -0.18970000       0.01602110      -0.06877989       0.06139759      12.01100000
C       -2.35420000      -2.24390000      -1.11700000      -0.04008371       0.24014623      -0.10111826      12.01100000
C       -3.16430000      -1.19490000      -0.68780000       0.03971194       0.13843052      -0.04444640      12.01100000
C        2.13640000      -2.05530000       1.73580000      -0.11838048      -0.11642231      -0.08522305      12.01100000
C        1.68950000      -2.90090000       0.72930000      -0.04896186       0.00480743       0.01169195      12.01100000
C        1.27850000      -1.63660000       2.74350000       0.07685197       0.04384647      -0.16288227      12.01100000
C        0.36780000      -3.33270000       0.73020000       0.12147642      -0.07585861      -0.16508814      12.01100000
C       -0.34400000      -3.39040000      -0.45940000       0.04745793      -0.01883704      -0.06200144      12.01100000
C        2.28890000      -2.52500000      -0.46400000      -0.04478577       0.08947008      -0.00098844      12.01100000
C        1.57900000      -2.57180000      -1.65800000      -0.01100427       0.01807771      -0.13194993      12.01100000
C        0.25600000      -3.00540000      -1.65310000       0.01487058      -0.02925908       0.08373061      12.01100000
C       -2.18280000      -0.57830000      -2.59790000       0.01776400       0.18884538       0.06121537      12.01100000
C       -1.74800000      -1.86940000      -2.30830000       0.02526961      -0.06809786      -0.11204713      12.01100000
C       -0.43850000      -2.24690000      -2.58450000      -0.09034860       0.17695618       0.05750682      12.01100000
C       -1.28150000       0.31890000      -3.16710000      -0.03014109       0.12645095      -0.20776719      12.01100000
C       -2.15260000       2.05450000      -1.73780000      -0.08350407      -0.02479890      -0.26419341      12.01100000
C       -3.04850000       1.15350000      -1.18110000       0.17214835       0.14590970      -0.05032333      12.01100000
C       -3.06560000      -0.16290000      -1.61070000       0.01113028      -0.02344939       0.13382399      12.01100000
C       -1.26610000       1.64070000      -2.72710000       0.09691909       0.00130297       0.25160289      12.01100000
C        0.50390000       2.93610000      -1.74180000      -0.08955116      -0.04348520       0.05401921      12.01100000
C       -0.37880000       3.35610000      -0.75130000       0.04460439       0.06636361      -0.00417210      12.01100000
C       -1.69430000       2.91860000      -0.74910000       0.11799907       0.09373646       0.09895584      12.01100000
C        0.05210000       2.07300000      -2.73550000       0.03351616       0.10878018      -0.05962098      12.01100000
C        2.09760000       0.83400000      -2.60510000       0.16997443       0.04096505       0.06760703      12.01100000
C        2.55170000       1.69230000      -1.61070000      -0.14071810      -0.14816650      -0.12781915      12.01100000
C        1.75890000       2.74520000      -1.18240000       0.15188742      -0.04143723      -0.08872595      12.01100000
C        0.84200000       1.02060000      -3.17860000       0.02504728      -0.25972849       0.27600546      12.01100000
C        0.44610000      -1.34950000      -3.16610000       0.17353512      -0.01024366      -0.02191083      12.01100000
C        1.69830000      -1.54850000      -2.59080000       0.06493467       0.03979935       0.03514530      12.01100000
C        2.51840000      -0.46230000      -2.31710000      -0.00268036       0.06062058       0.02522659      12.01100000
C        0.02180000      -0.06450000      -3.45850000      -0.03232742      -0.06265869       0.11076780      12.01100000
C        5.94060000       0.59650000      -0.41930000       0.01404331      -0.01101452      -0.07906443      12.01100000
C        5.93570000      -0.73530000      -0.16200000      -0.04133100      -0.02270238      -0.02335694      12.01100000
C        5.66630000      -1.38200000      -1.32280000       0.04108445       0.01272785      -0.00867178      12.01100000
C        5.50750000      -0.45190000      -2.29460000      -0.01967469      -0.02270280       0.10704104      12.01100000
C        5.67810000       0.77110000      -1.73860000      -0.00239786       0.18385958       0.11396814      12.01100000
C        2.83010000       5.12760000       1.23450000      -0.09683971      -0.10952181       0.22555966      12.01100000
C        3.83470000       4.56120000       0.52130000      -0.09705376      -0.23561106       0.11012731      12.01100000
C        3.57290000       4.73550000      -0.79620000       0.22096340      -0.03177532       0.03369329      12.01100000
C        2.39920000       5.40580000      -0.89720000      -0.03680893       0.09741295       0.11204328      12.01100000
C        1.94210000       5.65200000       0.35430000      -0.33256266       0.04838697      -0.09958274      12.01100000
C        3.37000000      -0.17130000       4.94290000       0.12052059      -0.13119798       0.03161055      12.01100000
C        4.38070000       0.08380000       4.07510000      -0.01207820      -0.07658194      -0.13972188      12.01100000
C        4.38280000       1.41520000       3.81810000      -0.13239597      -0.05293876      -0.06511627      12.01100000
C        3.37330000       1.97720000       4.52830000       0.19698614      -0.02097438       0.06655144      12.01100000
C        2.75020000       0.99860000       5.22730000      -0.09747915      -0.10326958      -0.07757785      12.01100000
C        2.37120000      -5.36250000       1.18010000       0.03908441      -0.05551817      -0.08607592      12.01100000
C        3.54640000      -4.70310000       1.03000000       0.04331790      -0.07184857      -0.06260102      12.01100000
C        3.81640000      -4.05840000       2.19080000      -0.13058550      -0.06184920      -0.07730976      12.01100000
C        2.80660000      -4.31830000       3.05820000      -0.09437271       0.02751285      -0.03615154      12.01100000
C        1.91470000      -5.12670000       2.43360000       0.03263474       0.12436470       0.10564640      12.01100000
C        1.21740000      -3.27530000      -4.86340000      -0.17788643       0.00747065      -0.07818777      12.01100000
C        2.49140000      -3.19300000      -4.40510000      -0.00947325       0.09618055       0.03351998      12.01100000
C        2.65450000      -4.12300000      -3.43440000      -0.00997180      -0.02301974       0.00169259      12.01100000
C        1.47620000      -4.77650000      -3.28620000      -0.14272219      -0.01961426       0.11649399      12.01100000
C        0.59020000      -4.25790000      -4.16960000      -0.07261278      -0.00464275       0.12049763      12.01100000
C        1.49520000       3.20730000      -4.82930000       0.20620681      -0.22014748      -0.03752840      12.01100000
C        2.66790000       2.53390000      -4.72220000      -0.09271816      -0.07520033       0.13288703      12.01100000
C        2.50350000       1.31170000      -5.28280000       0.00843228      -0.01252282      -0.09407469      12.01100000
C        1.22700000       1.23160000      -5.73180000       0.13456792      -0.06939556      -0.02581784      12.01100000
C        0.60550000       2.40280000      -5.45710000       0.04606909      -0.04283898       0.01874903      12.01100000
C       -5.93570000      -0.59440000       0.42270000      -0.01304307      -0.02634988      -0.12848885      12.01100000
C       -5.67490000      -0.76940000       1.74010000      -0.01987465       0.24246540      -0.04257224      12.01100000
C       -5.50630000       0.45710000       2.29310000      -0.04474799       0.01185386       0.00743448      12.01100000
C       -5.66940000       1.38700000       1.32150000      -0.09345576      -0.07133516      -0.08042746      12.01100000
C       -5.93590000       0.73720000       0.16170000      -0.00016291      -0.15931042       0.03567417      12.01100000
C       -1.94110000      -5.64480000      -0.34860000      -0.03638095       0.00372668      -0.01469536      12.01100000
C       -2.40080000      -5.40690000       0.90320000       0.01018694      -0.14135198       0.08443002      12.01100000
C       -3.57220000      -4.73310000       0.79580000       0.03276527      -0.11179147      -0.08660931      12.01100000
C       -3.83120000      -4.55720000      -0.52420000      -0.23298515      -0.03405278      -0.02714260      12.01100000
C       -2.82610000      -5.12390000      -1.23370000       0.04680370      -0.35240716      -0.29738805      12.01100000
C       -0.60830000      -2.40370000       5.45100000       0.10139166       0.08529615       0.01595904      12.01100000
C       -1.22900000      -1.22950000       5.72670000      -0.15035316      -0.02344090       0.18829210      12.01100000
C       -2.50360000      -1.31650000       5.27460000       0.02363450      -0.04135809      -0.05940437      12.01100000
C       -2.66790000      -2.54160000       4.72150000      -0.16153720       0.01915636       0.24802427      12.01100000
C       -1.49840000      -3.21580000       4.83180000      -0.06671528      -0.03842436       0.05830349      12.01100000
C       -0.59120000       4.25700000       4.16640000      -0.14809421       0.05975595       0.00171173      12.01100000
C       -1.47730000       4.78080000       3.28550000      -0.12409214      -0.00024069       0.18310574      12.01100000
C       -2.65030000       4.11680000       3.43640000      -0.04488476      -0.15759414       0.07830558      12.01100000
C       -2.48640000       3.19020000       4.41060000      -0.08991857       0.10434059      -0.03209341      12.01100000
C       -1.21440000       3.27630000       4.86590000       0.13785088      -0.02015136      -0.07637855      12.01100000
C       -1.91330000       5.12020000      -2.42570000       0.03433168      -0.02794939      -0.11818138      12.01100000
C       -2.80240000       4.31240000      -3.05500000      -0.00815500      -0.13058425      -0.16347759      12.01100000
C       -3.81120000       4.05680000      -2.18500000       0.02141077       0.00018714       0.15825655      12.01100000
C       -3.54830000       4.70870000      -1.02640000      -0.10345906      -0.00458713      -0.10156401      12.01100000
C       -2.37370000       5.36730000      -1.17590000       0.09347688       0.07623857       0.03386339      12.01100000
C       -2.75150000      -1.00080000      -5.22350000       0.20608219       0.13656719      -0.05092509      12.01100000
C       -3.37950000      -1.97970000      -4.52910000       0.07185608      -0.03738761       0.00896188      12.01100000
C       -4.38810000      -1.41580000      -3.82380000      -0.10149146      -0.00815114       0.17257060      12.01100000
C       -4.38430000      -0.08480000      -4.08200000      -0.06850823      -0.17017220      -0.04008842      12.01100000
C       -3.37290000       0.17320000      -4.94870000      -0.00168674       0.00560727      -0.06728184      12.01100000
C        5.57710000       1.08350000       1.83600000      -0.04586540       0.17407858       0.06286451      12.01100000
C        4.43850000       3.23390000       2.34680000       0.00951140      -0.04415240      -0.18708024      12.01100000
C        5.28420000       2.79100000       0.04890000       0.20915946      -0.07101867      -0.04602874      12.01100000
C        4.93750000       1.97320000       2.71950000       0.18423796       0.07497347       0.05268948      12.01100000
C        5.74720000       1.54940000       0.51980000      -0.15090350       0.03200933      -0.07154645      12.01100000
C        4.65680000       3.60500000       1.00830000       0.22771603       0.00896588       0.08611802      12.01100000
C        5.57430000      -0.34890000       2.11230000       0.01199962       0.13469789       0.02712416      12.01100000
C        4.42640000      -2.15060000       3.39110000      -0.12249012      -0.23540234       0.01622589      12.01100000
C        5.26880000      -2.59390000       1.09270000      -0.08115480       0.20415600       0.11168103      12.01100000
C        4.93250000      -0.84460000       3.26330000       0.02393370       0.10993534      -0.06575893      12.01100000
C        5.74000000      -1.27030000       1.06310000      -0.27774184      -0.07093267       0.03416820      12.01100000
C        4.64190000      -2.99270000       2.28460000      -0.18590629      -0.01554325       0.07159723      12.01100000
C        4.98110000      -3.29150000      -0.15470000      -0.11613224       0.01099593       0.07180421      12.01100000
C        3.34730000      -4.77230000      -1.30340000      -0.01431755       0.21459900      -0.09544345      12.01100000
C        4.49930000      -2.97310000      -2.57300000       0.03589905      -0.01883353       0.03674131      12.01100000
C        4.07280000      -4.36590000      -0.16980000      -0.03158328       0.08200360       0.07718966      12.01100000
C        5.17630000      -2.64090000      -1.38770000      -0.13990349      -0.09301367      -0.10820595      12.01100000
C        3.61360000      -4.06120000      -2.48620000       0.02897958       0.03117241       0.11136346      12.01100000
C        4.32560000      -1.97330000      -3.62020000       0.11144605       0.05556387       0.03163702      12.01100000
C        2.69660000      -1.01610000      -5.23840000       0.05043613       0.12801736      -0.13174836      12.01100000
C        4.33340000       0.46670000      -4.09490000      -0.05131143      -0.14880021       0.31372582      12.01100000
C        3.26990000      -2.09560000      -4.54410000       0.04968217      -0.06006265      -0.18605864      12.01100000
C        4.83730000      -0.67480000      -3.44870000      -0.11481334      -0.05132764       0.14516687      12.01100000
C        3.27860000       0.24260000      -4.99800000       0.16078106       0.12537158      -0.01390453      12.01100000
C        5.00110000       2.97520000      -1.36880000      -0.09513334       0.17806625       0.06800370      12.01100000
C        3.37090000       3.93170000      -2.98480000       0.00603534      -0.03755825       0.09371972      12.01100000
C        4.51340000       1.78380000      -3.49510000      -0.07469693      -0.07576159      -0.03832617      12.01100000
C        4.09730000       3.97270000      -1.78120000       0.16081145       0.00009616       0.07850424      12.01100000
C        5.19190000       1.91430000      -2.27160000       0.17657397      -0.05974350      -0.09069952      12.01100000
C        3.63030000       2.82940000      -3.81860000      -0.15445788      -0.15591727       0.10532614      12.01100000
C        3.35530000       3.83830000       3.11290000       0.05576440       0.16015899      -0.06023407      12.01100000
C        1.50250000       3.36900000       4.70820000      -0.14957049      -0.10647910       0.08711566      12.01100000
C        1.20710000       5.07450000       2.91980000      -0.06341662      -0.08479203      -0.11014097      12.01100000
C        2.80700000       3.16710000       4.22090000       0.04246144       0.07634189      -0.00087960      12.01100000
C        2.52450000       4.80090000       2.51020000      -0.12959288      -0.11819109       0.12793003      12.01100000
C        0.75140000       4.35030000       4.03430000       0.03772477      -0.04733888      -0.13027693      12.01100000
C        0.26130000       5.69300000      -1.79430000       0.02387769       0.16326449      -0.07691735      12.01100000
C       -0.22800000       4.50100000      -3.92490000      -0.02926519      -0.00358132      -0.12938899      12.01100000
C        2.11060000       4.65470000      -3.09810000       0.13070797       0.11119496      -0.23600924      12.01100000
C       -0.61880000       5.24320000      -2.79750000       0.05680202      -0.24026314       0.02702848      12.01100000
C        1.62070000       5.39090000      -2.00420000       0.12742997       0.04142123      -0.02869823      12.01100000
C        1.15220000       4.25230000      -4.04230000       0.14411457      -0.02673426      -0.13346280      12.01100000
C        0.25520000       5.63800000       1.96900000       0.00790080      -0.07685971      -0.04275370      12.01100000
C       -2.08430000       5.48330000       1.14000000       0.37075268      -0.01220017      -0.17811145      12.01100000
C       -0.23060000       5.95560000      -0.44780000       0.02830162      -0.12338175       0.21261304      12.01100000
C       -1.12660000       5.45600000       2.16810000      -0.17011249       0.03847606       0.06744253      12.01100000
C        0.64870000       5.90900000       0.64650000       0.06188015       0.00189398      -0.16662922      12.01100000
C       -1.59020000       5.76060000      -0.14830000       0.02481680       0.00815585       0.17739917      12.01100000
C        3.34110000      -2.42890000       4.32250000       0.14318609       0.04071914       0.11753342      12.01100000
C        1.18430000      -3.63500000       4.60310000      -0.15857595      -0.05327719       0.14769811      12.01100000
C        1.49470000      -1.38840000       5.62330000       0.15744656       0.09400289      -0.05134749      12.01100000
C        2.50300000      -3.54070000       4.12210000      -0.00103997      -0.05832151      -0.21707926      12.01100000
C        2.79910000      -1.38800000       5.09960000       0.02635490       0.01705221       0.02752857      12.01100000
C        0.73410000      -2.54270000       5.36710000      -0.02704949      -0.04994071      -0.08528150      12.01100000
C        0.82690000      -0.12770000       5.92340000      -0.06453869      -0.07099162      -0.12561738      12.01100000
C       -1.32370000       1.10600000       5.72560000       0.09489812       0.14225577       0.09985745      12.01100000
C        0.83250000       2.31330000       5.45590000       0.00914055      -0.14541171      -0.05172451      12.01100000
C       -0.57910000      -0.06470000       5.95260000      -0.00049884      -0.04216500      -0.02276209      12.01100000
C        1.48580000       1.09320000       5.69450000      -0.04623067       0.03212047       0.07045959      12.01100000
C       -0.57150000       2.27530000       5.50530000      -0.05614467       0.19855855       0.09920507      12.01100000
C        2.08400000      -5.47980000      -1.13790000       0.07225671       0.06995207      -0.10152990      12.01100000
C       -0.25530000      -5.63370000      -1.96610000       0.05786771      -0.01999475      -0.02731568      12.01100000
C        0.23070000      -5.95420000       0.45400000       0.05547208      -0.00681052       0.15932246      12.01100000
C        1.12480000      -5.45150000      -2.16760000       0.17459524       0.14795063      -0.03818949      12.01100000
C        1.58950000      -5.75730000       0.14900000       0.14137151       0.00446706       0.08315654      12.01100000
C       -0.64750000      -5.90410000      -0.64310000      -0.03006959       0.17894164       0.10385728      12.01100000
C       -0.26090000      -5.69470000       1.80130000      -0.04464911       0.12396557      -0.04563441      12.01100000
C       -2.11070000      -4.65830000       3.10220000      -0.03972029       0.07787255      -0.10475365      12.01100000
C        0.22940000      -4.50830000       3.93000000      -0.05857292      -0.00049143      -0.00131739      12.01100000
C       -1.62110000      -5.39420000       2.00760000       0.19063496      -0.00580885       0.12004126      12.01100000
C        0.62070000      -5.25020000       2.80300000      -0.09329514      -0.03203336       0.12663107      12.01100000
C       -1.14910000      -4.25880000       4.04770000      -0.14082391       0.04896038      -0.07425028      12.01100000
C        1.32480000      -1.10600000      -5.72510000      -0.12899140      -0.15232448       0.02153678      12.01100000
C       -0.82670000       0.12640000      -5.92430000      -0.16422379      -0.04663991       0.14747528      12.01100000
C       -0.83270000      -2.31670000      -5.45360000       0.10681083       0.02330339      -0.01913898      12.01100000
C        0.57880000       0.06580000      -5.95410000       0.00110773       0.09385145      -0.08854768      12.01100000
C        0.57250000      -2.27350000      -5.50360000       0.22221178       0.03970537      -0.04611932      12.01100000
C       -1.48540000      -1.09440000      -5.69230000      -0.08991823       0.09049593       0.01374021      12.01100000
C       -1.20610000      -5.07110000      -2.91790000      -0.04083892      -0.17273547       0.17031349      12.01100000
C       -3.35630000      -3.83580000      -3.11560000       0.13741689       0.03619534      -0.12406821      12.01100000
C       -1.50400000      -3.37190000      -4.70700000       0.06344202       0.06818125      -0.04084834      12.01100000
C       -2.52500000      -4.79620000      -2.51020000       0.06639739       0.03804601       0.08689209      12.01100000
C       -0.75120000      -4.34940000      -4.03600000       0.08503614      -0.16435437      -0.06681533      12.01100000
C       -2.80860000      -3.16690000      -4.22480000      -0.11571169       0.08040671      -0.11142149      12.01100000
C       -1.18410000       3.63010000      -4.59950000      -0.07792351      -0.02772201      -0.09270419      12.01100000
C       -3.34400000       2.42360000      -4.32360000      -0.05497966       0.16455598      -0.08945812      12.01100000
C       -1.49450000       1.38780000      -5.62530000       0.03837335      -0.03640881       0.17876356      12.01100000
C       -2.50400000       3.53340000      -4.11940000       0.16082043       0.10820521      -0.09683310      12.01100000
C       -0.73450000       2.54190000      -5.36800000      -0.03627957      -0.05318746      -0.17354294      12.01100000
C       -2.79830000       1.38680000      -5.10360000       0.08739138       0.01273563       0.07872202      12.01100000
C       -5.28210000      -2.78640000      -0.04890000       0.05853633      -0.05235422      -0.13905876      12.01100000
C       -4.43990000      -3.22970000      -2.34990000      -0.04153192      -0.01061776      -0.11283661      12.01100000
C       -5.58160000      -1.08230000      -1.83860000      -0.10493319       0.19448445       0.15260556      12.01100000
C       -4.65460000      -3.60040000      -1.01090000       0.01383857       0.23935761       0.10460242      12.01100000
C       -5.74710000      -1.54440000      -0.52180000      -0.02856175      -0.02915342       0.00804982      12.01100000
C       -4.94350000      -1.96950000      -2.72300000       0.00079667       0.19026833      -0.02480652      12.01100000
C       -4.99750000      -2.97540000       1.36780000       0.01296046      -0.10880418       0.06516566      12.01100000
C       -3.37150000      -3.93370000       2.98690000       0.02691997       0.09682973      -0.17258156      12.01100000
C       -4.51240000      -1.78380000       3.49440000      -0.10715422      -0.04386041      -0.13965965      12.01100000
C       -4.09640000      -3.97220000       1.78180000      -0.21616083      -0.13054140       0.11128900      12.01100000
C       -5.18950000      -1.91320000       2.27080000       0.01072938       0.16728571      -0.13190669      12.01100000
C       -3.63200000      -2.83060000       3.81940000       0.08902389       0.00887677      -0.03818973      12.01100000
C       -4.33190000      -0.46660000       4.09240000      -0.14552057      -0.05580349       0.03164898      12.01100000
C       -2.69540000       1.01560000       5.23780000       0.06232692       0.13579673      -0.08795546      12.01100000
C       -4.32420000       1.97410000       3.62040000       0.07131413       0.06576999       0.02515898      12.01100000
C       -3.27600000      -0.24160000       4.99570000      -0.07791914       0.03988588       0.02499146      12.01100000
C       -4.83560000       0.67700000       3.44730000      -0.07066826      -0.13019192       0.04163039      12.01100000
C       -3.27010000       2.09710000       4.54330000      -0.02797862       0.09470847      -0.02465435      12.01100000
C       -4.49720000       2.97340000       2.57230000      -0.08859457      -0.07477292       0.12887682      12.01100000
C       -3.34830000       4.77430000       1.30130000      -0.07842442      -0.19667040      -0.06000928      12.01100000
C       -4.98450000       3.29150000       0.15260000       0.00160576       0.03693104       0.06041636      12.01100000
C       -3.60960000       4.06190000       2.48420000      -0.07594883       0.00670114       0.12702385      12.01100000
C       -5.17700000       2.64390000       1.38570000       0.06003786      -0.13449864      -0.21837363      12.01100000
C       -4.07750000       4.36590000       0.16870000      -0.06644564      -0.10898332       0.12262253      12.01100000
C       -5.26910000       2.59410000      -1.09490000       0.09034475      -0.02521341      -0.19557733      12.01100000
C       -4.42920000       2.14530000      -3.39250000      -0.06590375      -0.02946753       0.02430562      12.01100000
C       -5.57870000       0.34880000      -2.11590000       0.13911495      -0.06290952      -0.03376013      12.01100000
C       -4.63860000       2.99100000      -2.28840000      -0.04225341       0.12873296       0.02477397      12.01100000
C       -5.74200000       1.26840000      -1.06660000      -0.01183284      -0.09020347      -0.04842237      12.01100000
C       -4.93810000       0.84050000      -3.26730000       0.10961530       0.10403696       0.03790156      12.01100000
O        0.00000000       0.00000000       0.11926200       0.10499958      -0.25895197       0.08268426      15.99900000
H        0.00000000       0.76323900      -0.47704700      -0.00081031      -0.02784333      -0.01210217       1.00800000
H        0.00000000      -0.76323900      -0.47704700       0.03016591       0.00503797       0.00870962       1.00800000
