243
Properties=species:S:1:pos:R:3:momenta:R:3:masses:R:1 C60-Ih=T time_fs=100000.0 step=100000 energy=-2133.838438082181 free_energy=-2133.838438082181 stress="0.0 0.0 0.0 0.0 0.0 0.0 0.0 0.0 0.0" pbc="F F F"
C       -1.40909583       3.00814396       1.05737913       0.63811759       0.41790882      -0.51372064      12.01100000
C       -2.55456368       2.11367660       1.25098661      -1.29495480       0.76265792       0.09150532      12.01100000
C       -1.00624630       3.40179297      -0.20714329       0.18926478      -1.14883210       0.27058624      12.01100000
C       -3.00354950       1.46707051       0.11562485      -1.34597302      -0.70082395      -0.55160362      12.01100000
C       -3.53341735       0.14305800       0.11594439      -0.19135826       0.28912090      -0.79006750      12.01100000
C       -2.25127644       1.23625151       2.37163006       0.45820171       0.61762352      -0.19946652      12.01100000
C       -2.66289401      -0.10993951       2.40283437       0.02520056       0.99355622       0.18551848      12.01100000
C       -3.26306771      -0.67433688       1.17695607       0.64182150      -0.59233078       0.59803516      12.01100000
C        1.34805042       3.20671217       0.53599646       0.90355653       0.92664446      -0.52386597      12.01100000
C        0.89854428       2.87896518       1.82159048       2.45919166       0.02488808       0.58422952      12.01100000
C        0.50227284       3.44970345      -0.48983845       0.49778471      -0.71480330       0.97653903      12.01100000
C       -0.45428117       2.78171486       2.10974322       1.15268420      -0.68607155      -1.07607854      12.01100000
C       -1.00050609       1.63017004       2.91874975      -0.56646325      -1.19875667      -0.21076252      12.01100000
C        1.74292493       1.81621742       2.39493065      -0.91806498      -0.55811964      -0.43702322      12.01100000
C        1.31320431       0.73435825       3.14580653      -0.60874922       0.07989627       0.88617111      12.01100000
C       -0.10332618       0.70643472       3.32746398       0.00607082      -0.22434342      -1.63011197      12.01100000
C        1.83184307       2.22406361      -2.05262345      -0.85124507       0.34426250       1.12586590      12.01100000
C        2.81137907       1.92999925      -1.00094488       0.08755564       2.20918787       0.23638450      12.01100000
C        0.66130162       2.92002296      -1.79805761       0.31961518      -0.09907515       0.40015554      12.01100000
C        2.46083426       2.39310569       0.25420343       0.12549552       0.23234205       0.66372476      12.01100000
C        2.68930677       1.60731911       1.46758317      -0.04310255       1.06624770       0.27086659      12.01100000
C        3.21516580       0.57467825      -1.18518716       1.11983815       0.53811866       0.60502322      12.01100000
C        3.44759151      -0.18824885      -0.07998165      -0.07807413       0.29840567      -0.40712016      12.01100000
C        3.24122629       0.34290482       1.22251399       1.20882189       1.54048748       0.11805759      12.01100000
C       -0.70739715       1.36456585      -3.13332480       0.58511152       0.55800358       0.90542406      12.01100000
C        0.47243523       0.63845152      -3.44815115       0.67167671      -0.44702368      -0.27303027      12.01100000
C       -0.60473942       2.42735465      -2.23252175       0.90616140       0.02487671       0.48178609      12.01100000
C        1.66626989       1.03279786      -2.92827874      -0.06612522       0.17211354       0.53368006      12.01100000
C        2.58756046       0.01503334      -2.36834055       0.71278331       1.91443254      -0.62249622      12.01100000
C        0.09401646      -0.71927300      -3.44162915       0.17505836      -0.35690685      -0.62074937      12.01100000
C        0.96435711      -1.69102753      -3.00375651       0.61530251       0.88441457       0.02683585      12.01100000
C        2.23793988      -1.34993257      -2.49220960      -0.51353897       0.17235864       0.09463217      12.01100000
C       -2.58305653       1.91776569      -1.20177032       0.09946712      -0.52962354      -1.42127751      12.01100000
C       -2.73225878       0.71677635      -2.00230637      -0.77845428       0.56033761       0.88840383      12.01100000
C       -1.64129799       2.87663671      -1.35046862       0.89796081       0.12093677      -0.38638358      12.01100000
C       -1.78484705       0.50853863      -2.99267454       0.54052040      -0.07370932       0.04362587      12.01100000
C       -1.26182786      -0.79295285      -3.16653932      -0.27646622      -0.40298021       0.17763629      12.01100000
C       -3.31766249      -0.29448850      -1.25639416      -0.78988968       2.05257548       0.65531834      12.01100000
C       -2.84307098      -1.66771068      -1.46515307       0.88243347      -0.89139489      -0.50824448      12.01100000
C       -1.81989062      -1.74476580      -2.38398222       0.17912868       0.47806169       1.50305068      12.01100000
C        1.37264042      -3.11114244      -1.19599622      -0.54880710      -0.57980139       0.32698985      12.01100000
C        0.46978682      -2.73408283      -2.17261103       0.36161209      -0.02899255       0.83714319      12.01100000
C       -0.94423751      -2.75389158      -1.91836440      -0.11421606      -1.07039835       0.43084311      12.01100000
C        0.85299786      -3.52755290       0.08212794       0.65432544       0.18022531      -1.22477441      12.01100000
C        2.58917898      -1.90761319       1.06075231      -0.52454040      -0.10149206      -0.02661770      12.01100000
C        3.02672273      -1.57226044      -0.20341584       1.15723938      -1.26913767      -0.09064854      12.01100000
C        2.55893510      -2.16339879      -1.40330164      -1.40334643       0.10062611       1.53379671      12.01100000
C        1.61742767      -2.88267492       1.15622225       0.35858189       0.35782890      -0.92192675      12.01100000
C        0.61428388      -1.48051389       2.93000369       0.16830520      -0.55276083      -0.11929217      12.01100000
C        1.70656044      -0.55741236       2.82256661      -0.19497897      -0.82906993       1.17557419      12.01100000
C        2.82909230      -0.83919553       1.97207504      -0.43823287      -0.57307333      -0.57979625      12.01100000
C        0.54963007      -2.52075411       2.12149859      -0.17697198       0.39726065       0.38042511      12.01100000
C       -1.79335643      -2.24242266       1.91893645      -0.00571317      -0.73868656      -0.07629680      12.01100000
C       -1.74582072      -1.09815527       2.77200217       0.26101859      -0.74343327       0.56626564      12.01100000
C       -0.47618937      -0.73639210       3.33535775       0.07244618      -1.12872543      -0.27386705      12.01100000
C       -0.71323889      -2.90062417       1.54442198      -0.31584796      -0.96085256       0.52029080      12.01100000
C       -1.42443251      -3.23960236      -0.72970876      -0.73577967       0.47108325       1.32396418      12.01100000
C       -2.57605196      -2.44675899      -0.34190188       0.47529019      -1.19831362      -0.14268333      12.01100000
C       -2.75866990      -2.08804854       0.97185676      -0.28364225      -0.65259761      -0.01717027      12.01100000
C       -0.56301856      -3.52833212       0.27618751      -0.46750092       0.92570804       0.14708299      12.01100000
C       -6.42789300      -0.60626806       0.89318214       0.46363390      -0.06529677      -0.72220909      12.01100000
C       -6.39930306      -1.32303937      -0.38134196      -0.68286469      -0.10759356      -0.33876610      12.01100000
C       -5.93292473      -2.68547744      -0.04645473       0.64702802      -0.17210494       0.16667223      12.01100000
C       -5.71935681      -2.88378486       1.37163480      -0.20481469       0.90909870       0.12134943      12.01100000
C       -5.86529928      -1.54007129       1.88104149      -1.26488795      -1.51469282      -0.09971363      12.01100000
C       -3.46437413       4.34774673       3.50284748       0.09940615       0.07192023       0.14471320      12.01100000
C       -4.36120580       3.21041661       3.38207667      -1.38925009      -0.35902228      -0.16986908      12.01100000
C       -3.93765441       2.25438606       4.48798340      -0.26601062      -0.75306037       0.40123198      12.01100000
C       -2.60848428       2.70486811       4.97359506       0.50999580      -0.16438895      -1.11394142      12.01100000
C       -2.33842343       3.95588989       4.33914092      -0.17924206       0.08502963      -1.84055957      12.01100000
C       -3.98665963       3.40457200      -3.31897639       0.34881798       0.56511042      -0.06401167      12.01100000
C       -4.89773692       2.84581683      -2.52679320      -1.99069660      -0.75687264       0.32062956      12.01100000
C       -4.98530601       3.61134510      -1.33628044      -0.16144628      -0.94487922      -0.74102704      12.01100000
C       -4.05680681       4.69664192      -1.35364724      -0.38527142       0.34123751      -0.36554143      12.01100000
C       -3.41765522       4.60773499      -2.66000986      -0.21415157      -0.19085140      -0.90171563      12.01100000
C       -2.30737903      -2.90387288      -5.12123849      -0.14226562      -0.73596654       0.90476228      12.01100000
C       -3.56952233      -2.75794393      -4.39331991      -1.58704447      -0.07268985       0.33496453      12.01100000
C       -3.99649723      -1.36853650      -4.60983363       0.86903523       0.24189308       0.83990829      12.01100000
C       -2.98683295      -0.76983388      -5.39326410       0.80225277      -0.30517523      -0.49786141      12.01100000
C       -1.95186960      -1.72436588      -5.67010090      -0.66314309       1.42969441      -1.07248045      12.01100000
C       -0.67916811      -6.37183805       0.62384386      -0.55349735      -1.27706914       1.03192032      12.01100000
C       -2.08791641      -6.11381949       0.49385244      -0.33651596       0.35217408       0.20604450      12.01100000
C       -2.28844394      -5.86945600      -0.99196016      -0.57676030      -0.93772056      -1.15193517      12.01100000
C       -1.00235814      -6.10158039      -1.63998864      -0.32176729      -0.87308871      -0.72559249      12.01100000
C       -0.00286413      -6.38349319      -0.67775508      -0.47371768      -0.35186452       0.71328705      12.01100000
C       -1.28149162      -1.78317543       6.00910636      -0.97791695      -0.92296472       0.33516252      12.01100000
C       -2.46924233      -2.34249864       5.26297603      -0.40199561       1.61021026      -0.62456779      12.01100000
C       -2.13174291      -3.57524847       4.72013782       0.82447375      -0.29036471      -0.48576034      12.01100000
C       -0.73813891      -3.95327909       4.97690739      -0.09135327       0.42413247       1.30540948      12.01100000
C       -0.17451447      -2.90387273       5.70071621       0.59866644      -1.23687320      -0.55279331      12.01100000
C        6.29481175       0.58447949      -0.92026864      -0.26727509       0.19034349       0.19256718      12.01100000
C        5.83320035       1.46931756      -1.97394754      -0.50821520      -1.61377711       0.51128583      12.01100000
C        5.58231998       2.76960461      -1.29148513       0.80865825       0.29300764      -0.59269247      12.01100000
C        5.80200606       2.64517057       0.11483164       0.38716750       0.40720625      -0.87511833      12.01100000
C        6.30034364       1.34311354       0.39900504      -0.51462005      -1.29223998      -1.19989384      12.01100000
C        2.36314334      -3.84797420      -4.43368864       0.81902555      -0.24389216      -0.49358784      12.01100000
C        2.80954164      -2.64389905      -5.02847231       0.60538391       0.29843109      -0.44388609      12.01100000
C        3.96347011      -2.19480536      -4.40278845      -0.72117858       0.44504497       0.22536236      12.01100000
C        4.39299208      -3.08486502      -3.35027276      -0.56639122       0.29991441       0.85695213      12.01100000
C        3.40067736      -4.12097630      -3.38344112       0.10711708       0.41931493      -0.46427507      12.01100000
C        0.29922854       2.80620956      -5.69840227       0.92099052      -0.11184139       0.25649609      12.01100000
C        0.91438353       3.91977222      -4.87622967      -0.69241611      -1.52389209      -0.52217424      12.01100000
C        2.26687689       3.67908109      -4.71514688       0.08818007      -0.44109106       0.04996024      12.01100000
C        2.55459659       2.38150169      -5.36346420      -0.09843642      -0.61631118       0.23008051      12.01100000
C        1.40694434       1.88144301      -5.93347290       0.14700053       0.18274994       0.44054800      12.01100000
C        0.03749601       6.26202682       0.51847532      -1.14380683       1.12044375      -0.42991571      12.01100000
C        1.04245162       6.14668538       1.64868106      -0.90806244       0.59513888       0.03748780      12.01100000
C        2.28401577       5.86508833       0.92941395       0.11562632      -0.09583453      -0.74512889      12.01100000
C        2.06749778       5.94491323      -0.47972166      -1.47048344       0.21304283       0.90831489      12.01100000
C        0.65535634       6.23635825      -0.67817097      -0.38491451      -0.52407368       0.23580848      12.01100000
C        2.01505336       1.77153047       5.90542821       0.88648558       0.61808378      -0.33898882      12.01100000
C        3.13082052       0.77575494       5.59595629      -0.60413982       1.05037754       0.13799517      12.01100000
C        4.08309876       1.44658676       4.79307939      -1.17488783       1.12194974       0.13964084      12.01100000
C        3.50661802       2.71326005       4.43158571       1.43801782       0.34680125      -0.07247678      12.01100000
C        2.37005491       3.03080170       5.29256027      -1.00316892       0.62580114      -1.29545305      12.01100000
C        3.49801576      -4.67718164       2.75481421      -0.19855659      -0.40738325       0.56909060      12.01100000
C        4.05817065      -4.65240252       1.43841914       0.24842293       0.91365196       0.56499129      12.01100000
C        5.08941456      -3.66200009       1.39215189      -0.67689212       0.42001591      -0.12174315      12.01100000
C        5.05687628      -2.93237142       2.58315586       0.01293004       0.01288601       0.55223255      12.01100000
C        4.04269007      -3.53796614       3.47330823       1.05159292      -0.56967733      -0.62423425      12.01100000
C       -5.97123415       1.58771719      -0.15266838       0.47831831       0.59165983       0.13891317      12.01100000
C       -4.81224821       3.57209280       0.97698086       1.36655041       0.10368290       0.59923344      12.01100000
C       -5.52186385       1.38121305       2.33709598      -0.75480000      -0.00051559      -0.36785383      12.01100000
C       -5.55350629       3.00176606      -0.15363352      -1.02874121       0.43766738       0.02266692      12.01100000
C       -6.14828989       0.80844381       1.07465603      -0.49742254      -0.24993121      -0.03178923      12.01100000
C       -5.04801916       2.78262911       2.24420296      -0.05043332       0.27910079       0.05631181      12.01100000
C       -5.80803275       0.85498463      -1.40940581       0.85888442      -0.19530612      -1.14910224      12.01100000
C       -4.76342878       0.73459414      -3.76471106       0.36869142      -0.49977587       0.46133329      12.01100000
C       -5.48562348      -1.34762943      -2.60710673       0.13513247      -0.53140417       1.21126590      12.01100000
C       -5.39294019       1.54196836      -2.61831299      -0.91237409      -0.16628684       0.39166304      12.01100000
C       -5.95135505      -0.59824478      -1.52057287       1.73557255       0.61031205       0.52016474      12.01100000
C       -4.91454535      -0.63631913      -3.73572829       0.26614714      -1.43435289       0.24034681      12.01100000
C       -4.95839662      -2.75749814      -2.36986605       0.79724033      -0.11590840      -0.32574023      12.01100000
C       -3.16112360      -4.64921975      -2.93768947       0.00388969       0.61636701      -0.57947493      12.01100000
C       -4.22820159      -4.47947857      -0.59431268       0.29739781       1.12410606      -0.93812264      12.01100000
C       -3.95538031      -3.46099949      -3.25300928       0.21678422       1.39660041      -0.03012654      12.01100000
C       -5.19527108      -3.34256345      -1.04795285      -0.57466970       0.86968265      -0.11701233      12.01100000
C       -3.30311656      -5.13530944      -1.64960856       1.29026346      -0.44091692      -0.52350824      12.01100000
C       -4.01323516      -4.67768057       0.88383755      -0.54196455       0.03444903       0.57196409      12.01100000
C       -2.20734689      -5.04882702       2.75475073       0.67974210       1.08619945       0.42132351      12.01100000
C       -4.03530061      -3.25674490       3.21027460      -0.23021419       0.62097090      -0.31611488      12.01100000
C       -2.83025849      -5.38249162       1.46086797      -0.46277759       0.31198856      -0.50252651      12.01100000
C       -4.61283810      -3.72878727       1.88233614       0.53833546      -0.15311100       0.12117823      12.01100000
C       -2.89350496      -4.05353778       3.64143593      -0.21921829       0.01290280      -0.48604720      12.01100000
C       -5.16238130       0.41625226       3.28597775       0.84040102       0.72127742      -0.06902934      12.01100000
C       -3.42729744       0.01761013       5.25361392      -0.69034840       1.34519313      -0.35853669      12.01100000
C       -4.44807513      -1.96784543       3.75352325       1.34881459       1.51219824       0.12585837      12.01100000
C       -4.35601853       0.89563545       4.39488869      -0.92149537       0.05506127      -1.35256409      12.01100000
C       -5.31372379      -1.08626651       3.11496975       0.59362206       0.17139878       0.35253312      12.01100000
C       -3.62392877      -1.56380711       4.97738608       1.53981604       0.12190466       0.43302629      12.01100000
C       -3.84471104       4.78607896       1.03228258       0.56884265      -0.29586953       0.76805843      12.01100000
C       -2.09983464       5.86631534      -0.44267029       1.56854961      -0.37307775       0.34101801      12.01100000
C       -1.72951751       5.65672486       2.14438741      -1.37234572      -0.85370243       0.17605775      12.01100000
C       -3.41542289       5.32478652      -0.29240217      -0.25619927       0.28375122       0.31967359      12.01100000
C       -3.18646556       5.09022284       2.29089782      -0.34705885      -0.12907798       0.35145603      12.01100000
C       -1.32153731       6.02391118       0.76700427       0.55004050      -0.32996037       0.07070272      12.01100000
C       -0.37613911       2.36272376       5.75966546      -0.18635954      -0.52564980       0.69495782      12.01100000
C        0.45278426      -0.04892015       6.14979850      -0.84667715      -0.22248936      -0.06057959      12.01100000
C       -2.13354855       0.53701167       5.85668849      -0.11012429       0.15861434       0.39503318      12.01100000
C        0.69286362       1.40330841       6.11080846      -1.01380586       0.19977133      -0.31326879      12.01100000
C       -1.74670046       1.93062335       5.75007576       0.08510706       0.06366983      -0.04771477      12.01100000
C       -1.06282061      -0.42025499       6.09703566      -0.14542107      -0.76521666       0.44585610      12.01100000
C       -0.70162581       5.33481850       3.22817123       0.31486501       0.48942786       0.75006669      12.01100000
C        1.76039506       4.90435173       3.71049529      -0.54497298      -0.39855700      -1.17014869      12.01100000
C       -0.04352083       3.58589787       4.94811614       0.83111637      -0.27412537       0.20536323      12.01100000
C        0.69310617       5.61840824       2.85317371       0.08598884      -0.48985434       0.74194385      12.01100000
C       -0.95156261       4.33631179       4.19287911       1.18671154       0.23792200      -0.79708755      12.01100000
C        1.38994801       3.94062434       4.70510149      -0.22432575      -1.80547341       0.24734656      12.01100000
C       -3.74389224       1.39207482      -4.60407270      -1.38688388       1.19955391       0.51472201      12.01100000
C       -1.49633035       1.02007821      -5.97965078       0.07087512      -1.56983019       1.03281708      12.01100000
C       -1.90005984       3.27074205      -4.59255574      -0.19948525      -1.17681474       0.88735898      12.01100000
C       -2.74384086       0.59496231      -5.43687480       0.14614221       0.46817862       1.32430266      12.01100000
C       -3.22742285       2.75259246      -4.32194159       1.46947450      -0.67316491      -0.20114032      12.01100000
C       -1.11460090       2.39224158      -5.54236037       0.31343909      -0.06026480       0.32160196      12.01100000
C       -1.34019628       4.48995081      -3.96098149      -0.56393544      -0.77098336      -0.10869640      12.01100000
C        0.76960527       5.37970133      -2.93128365      -0.10630906       0.35574088       0.55871500      12.01100000
C       -1.45989221       5.84208402      -1.74189151       0.20634903      -0.44730333       1.13126735      12.01100000
C        0.11357756       4.74427753      -4.03869565      -0.23183704       1.49193271       0.21079015      12.01100000
C       -2.09091032       5.02887409      -2.80716228       0.67334368      -0.61491063      -0.41024407      12.01100000
C       -0.02281229       5.96455089      -1.92744484       1.68474472       0.02262397      -0.67391279      12.01100000
C       -1.75958221      -4.76947488      -3.51818296      -0.44627597       1.08033238      -0.88347256      12.01100000
C        0.72089644      -5.29493595      -3.22789025      -0.76012278      -0.57257763       0.01718345      12.01100000
C        0.06529902      -3.66190305      -5.04244707      -0.63405576      -1.18835104      -0.28915122      12.01100000
C       -0.70835982      -5.43883082      -2.82841943       0.23095901      -0.18806540       0.20066017      12.01100000
C       -1.35942893      -3.91240964      -4.68690686       0.94808670       0.25172499       0.02082371      12.01100000
C        1.09087056      -4.40651168      -4.32510973       0.43296554       0.77749837       0.73317752      12.01100000
C        0.37571767      -2.30459389      -5.65562048       0.12897896      -0.49572221      -0.81504552      12.01100000
C        2.18170070      -0.43388080      -5.77956386       0.70263991      -0.22095119       0.15937125      12.01100000
C       -0.39856681       0.09408563      -6.19331960       1.16749397       0.40110636      -0.27397695      12.01100000
C        1.76512138      -1.82969019      -5.70217069      -1.07510707       1.38928891       0.45107919      12.01100000
C       -0.64277446      -1.39224633      -5.97687162      -1.58094933       1.15388163      -0.51918371      12.01100000
C        1.04434891       0.50315928      -6.12894366      -0.57796189      -0.21871831      -0.63073613      12.01100000
C       -0.81483247      -5.49361925       2.98896761      -0.44303359       0.38341447      -0.43591426      12.01100000
C        1.45410582      -4.59179864       4.02715857       0.21729491      -1.91532909       0.53282694      12.01100000
C        1.53025975      -5.70391746       1.73349890      -0.72655931       0.10200790       0.31442199      12.01100000
C       -0.02925430      -4.82631111       4.05671111      -1.01709884       0.02341802      -0.20537919      12.01100000
C        0.02330358      -5.91713356       1.78154447      -0.11044346      -0.29876577      -0.31615392      12.01100000
C        2.20019532      -5.12193542       2.91262291      -0.17703356       0.49785008       0.47650187      12.01100000
C        1.72903981      -5.49001644      -2.14606983       0.03547429       1.25722538      -1.69170908      12.01100000
C        3.91815693      -4.65960036      -1.01038951       0.09235319       0.12665690      -0.03887442      12.01100000
C        2.08303844      -5.72202423       0.38849180      -0.82376405       0.29604358      -0.24078858      12.01100000
C        3.11017102      -4.88057251      -2.27518543       0.45414992       0.25008919       0.88845440      12.01100000
C        1.35716207      -5.99753896      -0.86356967       0.26938045      -1.17650595       0.50662909      12.01100000
C        3.40298878      -5.15064039       0.27010089      -0.52607247       0.56490709      -0.24864907      12.01100000
C        1.45195842      -1.10445810       5.83048004      -0.74933506       0.70959682      -0.70756947      12.01100000
C        3.63648653      -1.40370631       4.67903750       0.10169431      -0.13210373       0.93210164      12.01100000
C        2.01675399      -3.35780446       4.74843008       0.00808622       0.92378603       1.07069821      12.01100000
C        2.82541856      -0.61369451       5.58014586       0.77778430       0.67507313      -0.26323881      12.01100000
C        1.17993715      -2.52510384       5.48217159      -0.68731497       0.25728017       0.71880618      12.01100000
C        3.27168912      -2.78838663       4.42006281       0.52927501      -0.19370957      -0.66740602      12.01100000
C        5.54359734      -1.32504077      -2.30566045       0.23498454      -0.18359890       0.24026566      12.01100000
C        4.96239402      -3.55312209      -1.02944357       0.55170989      -0.26485316      -0.29214958      12.01100000
C        5.89271671      -1.55047211       0.26157374       0.37812029      -0.58165636      -0.39231654      12.01100000
C        5.19435001      -2.72878579      -2.26133087      -0.49636637      -0.20021358       0.17587001      12.01100000
C        5.96759192      -0.79827355      -1.01975776      -0.33053310      -0.22248698      -0.29074760      12.01100000
C        5.41342141      -2.95261648       0.19650895       0.57456393      -0.44574718      -0.70789017      12.01100000
C        5.14047302      -0.41102603      -3.40040697       0.43379100      -0.00049976       0.13168900      12.01100000
C        3.38952721       0.09901331      -5.17821475      -0.56988916       0.31404483      -0.22026103      12.01100000
C        4.34813735       2.05452722      -3.78481082       0.53143104      -0.85446375      -0.17259360      12.01100000
C        4.26189079      -0.79775076      -4.48995868       0.93689667       0.70718752      -0.23419774      12.01100000
C        5.24865723       1.01171728      -3.17573840      -0.49678426       0.72440910      -0.34149586      12.01100000
C        3.49091338       1.52842991      -4.87533545       0.93060861      -0.09738974       0.12916943      12.01100000
C        4.12442988       3.35985531      -3.16542528      -0.08695890      -0.82258804       0.32792054      12.01100000
C        2.26076434       5.04307127      -2.75469538      -0.43576804      -0.42879248       0.56238804      12.01100000
C        4.03006684       4.65768663      -0.83739603      -0.49222039      -0.05239558      -0.25057348      12.01100000
C        3.02500961       4.12495074      -3.64220596       0.39593492       1.58372876      -1.42393133      12.01100000
C        4.75432701       3.76925209      -1.79335027      -0.88635038       0.56621562       0.72543679      12.01100000
C        2.84281320       5.33080171      -1.43234612       0.61388820       0.21271402       0.44880633      12.01100000
C        4.27923312       4.55698700       0.60612532       0.75457122       0.72244591      -0.03510804      12.01100000
C        3.12852991       4.61074265       2.92549008      -0.43905095       0.01934318      -1.80334597      12.01100000
C        4.89691821       2.83330360       2.42168765      -1.29483837      -0.10016316       0.40714597      12.01100000
C        3.28699299       5.06388024       1.52493974      -0.74595603      -2.00326322       0.96891922      12.01100000
C        5.14067612       3.44896430       1.11943605      -0.02268228      -0.43766050      -0.22378098      12.01100000
C        3.89398097       3.43254746       3.26540805       0.45697250      -1.17454302       0.02970013      12.01100000
C        5.22501077       1.36056634       2.62740300       0.54122856       0.62883434      -0.43187057      12.01100000
C        4.66044699      -0.77751368       3.78246141       0.05985090      -0.85425718       0.28897130      12.01100000
C        5.80207126      -0.86723282       1.46359087      -0.81266496       0.23939504      -1.48671882      12.01100000
C        4.89578305       0.65054140       3.83288272      -0.49808503       0.13558279      -0.30262711      12.01100000
C        5.81817696       0.60809483       1.53229271      -0.72279822       0.09652707      -0.32811846      12.01100000
C        5.29827057      -1.55353346       2.66435951       0.98910408       1.04187352      -0.42670876      12.01100000
O       -0.01446273       0.25333650       0.21825859       0.15868626      -0.81666366       0.77550190      15.99900000
H       -0.65548259      -0.49385324       0.13255475       0.18817689      -0.05775037       0.34896105       1.00800000
H        0.90273667      -0.10851253       0.02072885       0.07048871      -0.13598536      -0.18565818       1.00800000
